!- Windows Line endings 

Version,
    9.2;                      !- Version Identifier

SimulationControl,
    YES,                      !- Do Zone Sizing Calculation
    YES,                      !- Do System Sizing Calculation
    YES,                      !- Do Plant Sizing Calculation
    NO,                       !- Run Simulation for Sizing Periods
    YES;                      !- Run Simulation for Weather File Run Periods

Building,
    Ref Bldg Primary School New2004_v1.3_5.0,    !- Name
    0,                        !- North Axis
    City,                     !- Terrain
    0.04,                     !- Loads Convergence Tolerance Value
    0.2,                      !- Temperature Convergence Tolerance Value
    FullInteriorAndExterior,    !- Solar Distribution
    25,                       !- Maximum Number of Warmup Days
    6;                        !- Minimum Number of Warmup Days

ShadowCalculation,
    AverageOverDaysInFrequency,    !- Calculation Method
    7,                        !- Calculation Frequency
    15000;                    !- Maximum Figures in Shadow Overlap Calculations

SurfaceConvectionAlgorithm:Inside,
    TARP;                     !- Algorithm

SurfaceConvectionAlgorithm:Outside,
    DOE-2;                    !- Algorithm

HeatBalanceAlgorithm,
    ConductionTransferFunction,    !- Algorithm
    200;                      !- Surface Temperature Upper Limit

ZoneAirHeatBalanceAlgorithm,
    AnalyticalSolution;       !- Algorithm

Timestep,
    6;                        !- Number of Timesteps per Hour

ConvergenceLimits,
    2,                        !- Minimum System Timestep
    25;                       !- Maximum HVAC Iterations

Site:Location,
    USA IL-CHICAGO-OHARE,     !- Name
    41.77,                    !- Latitude
    -87.75,                   !- Longitude
    -6,                       !- Time Zone
    190;                      !- Elevation

SizingPeriod:DesignDay,
    CHICAGO Ann Htg 99.6% Condns DB,    !- Name
    1,                        !- Month
    21,                       !- Day of Month
    WinterDesignDay,          !- Day Type
    -20.6,                    !- Maximum DryBulb Temperature
    0,                        !- Daily DryBulb Temperature Range
    ,                         !- DryBulb Temperature Range Modifier Type
    ,                         !- DryBulb Temperature Range Modifier Day Schedule Name
    Wetbulb,                  !- Humidity Condition Type
    -20.6,                    !- Wetbulb or DewPoint at Maximum DryBulb
    ,                         !- Humidity Condition Day Schedule Name
    ,                         !- Humidity Ratio at Maximum DryBulb
    ,                         !- Enthalpy at Maximum DryBulb
    ,                         !- Daily WetBulb Temperature Range
    99063,                    !- Barometric Pressure
    4.9,                      !- Wind Speed
    270,                      !- Wind Direction
    No,                       !- Rain Indicator
    No,                       !- Snow Indicator
    No,                       !- Daylight Saving Time Indicator
    ASHRAEClearSky,           !- Solar Model Indicator
    ,                         !- Beam Solar Day Schedule Name
    ,                         !- Diffuse Solar Day Schedule Name
    ,                         !- ASHRAE Clear Sky Optical Depth for Beam Irradiance taub
    ,                         !- ASHRAE Clear Sky Optical Depth for Diffuse Irradiance taud
    0;                        !- Sky Clearness

SizingPeriod:DesignDay,
    CHICAGO Ann Clg .4% Condns WB=>MDB,    !- Name
    7,                        !- Month
    21,                       !- Day of Month
    SummerDesignDay,          !- Day Type
    31.2,                     !- Maximum DryBulb Temperature
    10.7,                     !- Daily DryBulb Temperature Range
    ,                         !- DryBulb Temperature Range Modifier Type
    ,                         !- DryBulb Temperature Range Modifier Day Schedule Name
    Wetbulb,                  !- Humidity Condition Type
    25.5,                     !- Wetbulb or DewPoint at Maximum DryBulb
    ,                         !- Humidity Condition Day Schedule Name
    ,                         !- Humidity Ratio at Maximum DryBulb
    ,                         !- Enthalpy at Maximum DryBulb
    ,                         !- Daily WetBulb Temperature Range
    99063,                    !- Barometric Pressure
    5.3,                      !- Wind Speed
    230,                      !- Wind Direction
    No,                       !- Rain Indicator
    No,                       !- Snow Indicator
    No,                       !- Daylight Saving Time Indicator
    ASHRAEClearSky,           !- Solar Model Indicator
    ,                         !- Beam Solar Day Schedule Name
    ,                         !- Diffuse Solar Day Schedule Name
    ,                         !- ASHRAE Clear Sky Optical Depth for Beam Irradiance taub
    ,                         !- ASHRAE Clear Sky Optical Depth for Diffuse Irradiance taud
    1;                        !- Sky Clearness

RunPeriod,
    RUNPERIOD 1,              !- Name
    1,                        !- Begin Month
    1,                        !- Begin Day of Month
    ,                         !- Begin Year
    12,                       !- End Month
    31,                       !- End Day of Month
    ,                         !- End Year
    Sunday,                   !- Day of Week for Start Day
    No,                       !- Use Weather File Holidays and Special Days
    No,                       !- Use Weather File Daylight Saving Period
    No,                       !- Apply Weekend Holiday Rule
    Yes,                      !- Use Weather File Rain Indicators
    Yes,                      !- Use Weather File Snow Indicators
    ;                         !- Treat Weather as Actual

RunPeriodControl:SpecialDays,
    New Years Day,            !- Name
    January 1,                !- Start Date
    1,                        !- Duration
    Holiday;                  !- Special Day Type

RunPeriodControl:SpecialDays,
    Veterans Day,             !- Name
    November 11,              !- Start Date
    1,                        !- Duration
    Holiday;                  !- Special Day Type

RunPeriodControl:SpecialDays,
    Christmas,                !- Name
    December 25,              !- Start Date
    1,                        !- Duration
    Holiday;                  !- Special Day Type

RunPeriodControl:SpecialDays,
    Independence Day,         !- Name
    July 4,                   !- Start Date
    1,                        !- Duration
    Holiday;                  !- Special Day Type

RunPeriodControl:SpecialDays,
    MLK Day,                  !- Name
    3rd Monday in January,    !- Start Date
    1,                        !- Duration
    Holiday;                  !- Special Day Type

RunPeriodControl:SpecialDays,
    Presidents Day,           !- Name
    3rd Monday in February,    !- Start Date
    1,                        !- Duration
    Holiday;                  !- Special Day Type

RunPeriodControl:SpecialDays,
    Memorial Day,             !- Name
    Last Monday in May,       !- Start Date
    1,                        !- Duration
    Holiday;                  !- Special Day Type

RunPeriodControl:SpecialDays,
    Labor Day,                !- Name
    1st Monday in September,    !- Start Date
    1,                        !- Duration
    Holiday;                  !- Special Day Type

RunPeriodControl:SpecialDays,
    Columbus Day,             !- Name
    2nd Monday in October,    !- Start Date
    1,                        !- Duration
    Holiday;                  !- Special Day Type

RunPeriodControl:SpecialDays,
    Thanksgiving,             !- Name
    4th Thursday in November,    !- Start Date
    1,                        !- Duration
    Holiday;                  !- Special Day Type

RunPeriodControl:DaylightSavingTime,
    2nd Sunday in March,      !- Start Date
    1st Sunday in November;    !- End Date

Site:GroundTemperature:BuildingSurface,
    19.527,                   !- January Ground Temperature
    19.502,                   !- February Ground Temperature
    19.536,                   !- March Ground Temperature
    19.598,                   !- April Ground Temperature
    20.002,                   !- May Ground Temperature
    21.64,                    !- June Ground Temperature
    22.225,                   !- July Ground Temperature
    22.375,                   !- August Ground Temperature
    21.449,                   !- September Ground Temperature
    20.121,                   !- October Ground Temperature
    19.802,                   !- November Ground Temperature
    19.633;                   !- December Ground Temperature

Site:WaterMainsTemperature,
    CORRELATION,              !- Calculation Method
    ,                         !- Temperature Schedule Name
    9.69,                     !- Annual Average Outdoor Air Temperature
    28.1;                     !- Maximum Difference In Monthly Average Outdoor Air Temperatures

ScheduleTypeLimits,
    Any Number;               !- Name

ScheduleTypeLimits,
    Fraction,                 !- Name
    0.0,                      !- Lower Limit Value
    1.0,                      !- Upper Limit Value
    CONTINUOUS;               !- Numeric Type

ScheduleTypeLimits,
    Temperature,              !- Name
    -60,                      !- Lower Limit Value
    200,                      !- Upper Limit Value
    CONTINUOUS;               !- Numeric Type

ScheduleTypeLimits,
    On/Off,                   !- Name
    0,                        !- Lower Limit Value
    1,                        !- Upper Limit Value
    DISCRETE;                 !- Numeric Type

ScheduleTypeLimits,
    Control Type,             !- Name
    0,                        !- Lower Limit Value
    4,                        !- Upper Limit Value
    DISCRETE;                 !- Numeric Type

ScheduleTypeLimits,
    Humidity,                 !- Name
    10,                       !- Lower Limit Value
    90,                       !- Upper Limit Value
    CONTINUOUS;               !- Numeric Type

ScheduleTypeLimits,
    Number;                   !- Name

Schedule:Compact,
    ALWAYS_ON,                !- Name
    On/Off,                   !- Schedule Type Limits Name
    Through: 12/31,           !- Field 1
    For: AllDays,             !- Field 2
    Until: 24:00,             !- Field 3
    1;                        !- Field 4

Schedule:Compact,
    BLDG_EQUIP_SCH,           !- Name
    Fraction,                 !- Schedule Type Limits Name
    Through: 6/30,            !- Field 1
    For: Weekdays SummerDesignDay,    !- Field 2
    Until: 08:00,             !- Field 3
    0.35,                     !- Field 4
    Until: 17:00,             !- Field 5
    0.95,                     !- Field 6
    Until: 24:00,             !- Field 7
    0.35,                     !- Field 8
    For: AllOtherDays,        !- Field 9
    Until: 24:00,             !- Field 10
    0.35,                     !- Field 11
    Through: 9/1,             !- Field 12
    For: Weekdays SummerDesignDay,    !- Field 13
    Until: 08:00,             !- Field 14
    0.25,                     !- Field 15
    Until: 17:00,             !- Field 16
    0.5,                      !- Field 17
    Until: 24:00,             !- Field 18
    0.25,                     !- Field 19
    For: AllOtherDays,        !- Field 20
    Until: 24:00,             !- Field 21
    0.25,                     !- Field 22
    Through: 12/31,           !- Field 23
    For: Weekdays SummerDesignDay,    !- Field 24
    Until: 08:00,             !- Field 25
    0.35,                     !- Field 26
    Until: 17:00,             !- Field 27
    0.95,                     !- Field 28
    Until: 24:00,             !- Field 29
    0.35,                     !- Field 30
    For: AllOtherDays,        !- Field 31
    Until: 24:00,             !- Field 32
    0.35;                     !- Field 33

Schedule:Compact,
    BLDG_LIGHT_SCH,           !- Name
    Fraction,                 !- Schedule Type Limits Name
    Through: 6/30,            !- Field 1
    For: Weekdays SummerDesignDay,    !- Field 2
    Until: 07:00,             !- Field 3
    0.1773,                   !- Field 4
    Until: 21:00,             !- Field 5
    0.9,                      !- Field 6
    Until: 24:00,             !- Field 7
    0.1773,                   !- Field 8
    For: AllOtherDays,        !- Field 9
    Until: 24:00,             !- Field 10
    0.1773,                   !- Field 11
    Through: 9/1,             !- Field 12
    For: Weekdays SummerDesignDay,    !- Field 13
    Until: 08:00,             !- Field 14
    0.1773,                   !- Field 15
    Until: 20:00,             !- Field 16
    0.5,                      !- Field 17
    Until: 24:00,             !- Field 18
    0.1773,                   !- Field 19
    For: AllOtherDays,        !- Field 20
    Until: 24:00,             !- Field 21
    0.1773,                   !- Field 22
    Through: 12/31,           !- Field 23
    For: Weekdays SummerDesignDay,    !- Field 24
    Until: 07:00,             !- Field 25
    0.1773,                   !- Field 26
    Until: 21:00,             !- Field 27
    0.9,                      !- Field 28
    Until: 24:00,             !- Field 29
    0.1773,                   !- Field 30
    For: AllOtherDays,        !- Field 31
    Until: 24:00,             !- Field 32
    0.1773;                   !- Field 33

Schedule:Compact,
    BLDG_OCC_SCH,             !- Name
    Fraction,                 !- Schedule Type Limits Name
    Through: 6/30,            !- Field 1
    For: Weekdays SummerDesignDay,    !- Field 2
    Until: 08:00,             !- Field 3
    0,                        !- Field 4
    Until: 16:00,             !- Field 5
    0.75,                     !- Field 6
    Until: 21:00,             !- Field 7
    0.15,                     !- Field 8
    Until: 24:00,             !- Field 9
    0,                        !- Field 10
    For: AllOtherDays,        !- Field 11
    Until: 24:00,             !- Field 12
    0,                        !- Field 13
    Through: 9/1,             !- Field 14
    For: Weekdays SummerDesignDay,    !- Field 15
    Until: 08:00,             !- Field 16
    0,                        !- Field 17
    Until: 21:00,             !- Field 18
    0.15,                     !- Field 19
    Until: 24:00,             !- Field 20
    0,                        !- Field 21
    For: AllOtherDays,        !- Field 22
    Until: 24:00,             !- Field 23
    0,                        !- Field 24
    Through: 12/31,           !- Field 25
    For: Weekdays SummerDesignDay,    !- Field 26
    Until: 08:00,             !- Field 27
    0,                        !- Field 28
    Until: 16:00,             !- Field 29
    0.75,                     !- Field 30
    Until: 21:00,             !- Field 31
    0.15,                     !- Field 32
    Until: 24:00,             !- Field 33
    0,                        !- Field 34
    For: AllOtherDays,        !- Field 35
    Until: 24:00,             !- Field 36
    0;                        !- Field 37

Schedule:Compact,
    BLDG_OCC_SCH_Cafeteria,    !- Name
    Fraction,                 !- Schedule Type Limits Name
    Through: 6/30,            !- Field 1
    For: Weekdays SummerDesignDay,    !- Field 2
    Until: 07:00,             !- Field 3
    0,                        !- Field 4
    Until: 09:00,             !- Field 5
    0.15,                     !- Field 6
    Until: 11:00,             !- Field 7
    0.05,                     !- Field 8
    Until: 13:00,             !- Field 9
    0.95,                     !- Field 10
    Until: 15:00,             !- Field 11
    0.15,                     !- Field 12
    Until: 24:00,             !- Field 13
    0,                        !- Field 14
    For: AllOtherDays,        !- Field 15
    Until: 24:00,             !- Field 16
    0,                        !- Field 17
    Through: 9/1,             !- Field 18
    For: Weekdays SummerDesignDay,    !- Field 19
    Until: 09:00,             !- Field 20
    0,                        !- Field 21
    Until: 15:00,             !- Field 22
    0.25,                     !- Field 23
    Until: 24:00,             !- Field 24
    0,                        !- Field 25
    For: AllOtherDays,        !- Field 26
    Until: 24:00,             !- Field 27
    0,                        !- Field 28
    Through: 12/31,           !- Field 29
    For: Weekdays SummerDesignDay,    !- Field 30
    Until: 07:00,             !- Field 31
    0,                        !- Field 32
    Until: 09:00,             !- Field 33
    0.15,                     !- Field 34
    Until: 11:00,             !- Field 35
    0.05,                     !- Field 36
    Until: 13:00,             !- Field 37
    0.95,                     !- Field 38
    Until: 15:00,             !- Field 39
    0.15,                     !- Field 40
    Until: 24:00,             !- Field 41
    0,                        !- Field 42
    For: AllOtherDays,        !- Field 43
    Until: 24:00,             !- Field 44
    0;                        !- Field 45

Schedule:Compact,
    BLDG_OCC_SCH_Gym,         !- Name
    Fraction,                 !- Schedule Type Limits Name
    Through: 6/30,            !- Field 1
    For: Weekdays SummerDesignDay,    !- Field 2
    Until: 08:00,             !- Field 3
    0,                        !- Field 4
    Until: 16:00,             !- Field 5
    0.35,                     !- Field 6
    Until: 21:00,             !- Field 7
    0.95,                     !- Field 8
    Until: 24:00,             !- Field 9
    0,                        !- Field 10
    For: AllOtherDays,        !- Field 11
    Until: 24:00,             !- Field 12
    0,                        !- Field 13
    Through: 9/1,             !- Field 14
    For: Weekdays SummerDesignDay,    !- Field 15
    Until: 08:00,             !- Field 16
    0,                        !- Field 17
    Until: 16:00,             !- Field 18
    0.35,                     !- Field 19
    Until: 21:00,             !- Field 20
    0.35,                     !- Field 21
    Until: 24:00,             !- Field 22
    0,                        !- Field 23
    For: AllOtherDays,        !- Field 24
    Until: 24:00,             !- Field 25
    0,                        !- Field 26
    Through: 12/31,           !- Field 27
    For: Weekdays SummerDesignDay,    !- Field 28
    Until: 08:00,             !- Field 29
    0,                        !- Field 30
    Until: 16:00,             !- Field 31
    0.35,                     !- Field 32
    Until: 21:00,             !- Field 33
    0.95,                     !- Field 34
    Until: 24:00,             !- Field 35
    0,                        !- Field 36
    For: AllOtherDays,        !- Field 37
    Until: 24:00,             !- Field 38
    0;                        !- Field 39

Schedule:Compact,
    BLDG_OCC_SCH_Offices,     !- Name
    Fraction,                 !- Schedule Type Limits Name
    Through: 6/30,            !- Field 1
    For: Weekdays SummerDesignDay,    !- Field 2
    Until: 08:00,             !- Field 3
    0,                        !- Field 4
    Until: 17:00,             !- Field 5
    0.95,                     !- Field 6
    Until: 21:00,             !- Field 7
    0.15,                     !- Field 8
    Until: 24:00,             !- Field 9
    0,                        !- Field 10
    For: AllOtherDays,        !- Field 11
    Until: 24:00,             !- Field 12
    0,                        !- Field 13
    Through: 9/1,             !- Field 14
    For: Weekdays SummerDesignDay,    !- Field 15
    Until: 08:00,             !- Field 16
    0,                        !- Field 17
    Until: 17:00,             !- Field 18
    0.5,                      !- Field 19
    Until: 24:00,             !- Field 20
    0,                        !- Field 21
    For: AllOtherDays,        !- Field 22
    Until: 24:00,             !- Field 23
    0,                        !- Field 24
    Through: 12/31,           !- Field 25
    For: Weekdays SummerDesignDay,    !- Field 26
    Until: 08:00,             !- Field 27
    0,                        !- Field 28
    Until: 17:00,             !- Field 29
    0.95,                     !- Field 30
    Until: 21:00,             !- Field 31
    0.15,                     !- Field 32
    Until: 24:00,             !- Field 33
    0,                        !- Field 34
    For: AllOtherDays,        !- Field 35
    Until: 24:00,             !- Field 36
    0;                        !- Field 37

Schedule:Compact,
    KITCHEN_ELEC_EQUIP_SCH,    !- Name
    Fraction,                 !- Schedule Type Limits Name
    Through: 6/30,            !- Field 1
    For: Weekdays SummerDesignDay,    !- Field 2
    Until: 08:00,             !- Field 3
    0.1,                      !- Field 4
    Until: 10:00,             !- Field 5
    0.15,                     !- Field 6
    Until: 13:00,             !- Field 7
    0.25,                     !- Field 8
    Until: 15:00,             !- Field 9
    0.15,                     !- Field 10
    Until: 24:00,             !- Field 11
    0.1,                      !- Field 12
    For: AllOtherDays,        !- Field 13
    Until: 24:00,             !- Field 14
    0.1,                      !- Field 15
    Through: 9/1,             !- Field 16
    For: Weekdays SummerDesignDay,    !- Field 17
    Until: 08:00,             !- Field 18
    0.1,                      !- Field 19
    Until: 10:00,             !- Field 20
    0.13,                     !- Field 21
    Until: 13:00,             !- Field 22
    0.20,                     !- Field 23
    Until: 15:00,             !- Field 24
    0.13,                     !- Field 25
    Until: 24:00,             !- Field 26
    0.1,                      !- Field 27
    For: AllOtherDays,        !- Field 28
    Until: 24:00,             !- Field 29
    0.1,                      !- Field 30
    Through: 12/31,           !- Field 31
    For: Weekdays SummerDesignDay,    !- Field 32
    Until: 08:00,             !- Field 33
    0.1,                      !- Field 34
    Until: 10:00,             !- Field 35
    0.15,                     !- Field 36
    Until: 13:00,             !- Field 37
    0.25,                     !- Field 38
    Until: 15:00,             !- Field 39
    0.15,                     !- Field 40
    Until: 24:00,             !- Field 41
    0.1,                      !- Field 42
    For: AllOtherDays,        !- Field 43
    Until: 24:00,             !- Field 44
    0.1;                      !- Field 45

Schedule:Compact,
    KITCHEN_GAS_EQUIP_SCH,    !- Name
    Fraction,                 !- Schedule Type Limits Name
    Through: 6/30,            !- Field 1
    For: Weekdays SummerDesignDay,    !- Field 2
    Until: 08:00,             !- Field 3
    0.02,                     !- Field 4
    Until: 10:00,             !- Field 5
    0.15,                     !- Field 6
    Until: 13:00,             !- Field 7
    0.2,                      !- Field 8
    Until: 15:00,             !- Field 9
    0.1,                      !- Field 10
    Until: 24:00,             !- Field 11
    0.02,                     !- Field 12
    For: AllOtherDays,        !- Field 13
    Until: 24:00,             !- Field 14
    0.02,                     !- Field 15
    Through: 9/1,             !- Field 16
    For: Weekdays SummerDesignDay,    !- Field 17
    Until: 08:00,             !- Field 18
    0.02,                     !- Field 19
    Until: 10:00,             !- Field 20
    0.1,                      !- Field 21
    Until: 13:00,             !- Field 22
    0.15,                     !- Field 23
    Until: 15:00,             !- Field 24
    0.1,                      !- Field 25
    Until: 24:00,             !- Field 26
    0.02,                     !- Field 27
    For: AllOtherDays,        !- Field 28
    Until: 24:00,             !- Field 29
    0.02,                     !- Field 30
    Through: 12/31,           !- Field 31
    For: Weekdays SummerDesignDay,    !- Field 32
    Until: 08:00,             !- Field 33
    0.02,                     !- Field 34
    Until: 10:00,             !- Field 35
    0.15,                     !- Field 36
    Until: 13:00,             !- Field 37
    0.2,                      !- Field 38
    Until: 15:00,             !- Field 39
    0.1,                      !- Field 40
    Until: 24:00,             !- Field 41
    0.02,                     !- Field 42
    For: AllOtherDays,        !- Field 43
    Until: 24:00,             !- Field 44
    0.02;                     !- Field 45

Schedule:Compact,
    Kitchen_Exhaust_SCH,      !- Name
    Fraction,                 !- Schedule Type Limits Name
    Through: 12/31,           !- Field 1
    For: Weekdays SummerDesignDay,    !- Field 2
    Until: 06:00,             !- Field 3
    0,                        !- Field 4
    Until: 21:00,             !- Field 5
    1.0,                      !- Field 6
    Until: 24:00,             !- Field 7
    0,                        !- Field 8
    For: AllOtherDays,        !- Field 9
    Until: 24:00,             !- Field 10
    0;                        !- Field 11

Schedule:Compact,
    INFIL_SCH,                !- Name
    Fraction,                 !- Schedule Type Limits Name
    Through: 12/31,           !- Field 1
    For: AllDays,             !- Field 2
    Until: 07:00,             !- Field 3
    1,                        !- Field 4
    Until: 21:00,             !- Field 5
    0.5,                      !- Field 6
    Until: 24:00,             !- Field 7
    1;                        !- Field 8

Schedule:Compact,
    WORK_EFF_SCH,             !- Name
    Fraction,                 !- Schedule Type Limits Name
    Through: 12/31,           !- Field 1
    For: AllDays,             !- Field 2
    Until: 24:00,             !- Field 3
    0;                        !- Field 4

Schedule:Compact,
    CLOTHING_SCH,             !- Name
    Any Number,               !- Schedule Type Limits Name
    Through: 04/30,           !- Field 1
    For: AllDays,             !- Field 2
    Until: 24:00,             !- Field 3
    1.1,                      !- Field 4
    Through: 09/30,           !- Field 5
    For: AllDays,             !- Field 6
    Until: 24:00,             !- Field 7
    0.6,                      !- Field 8
    Through: 12/31,           !- Field 9
    For: AllDays,             !- Field 10
    Until: 24:00,             !- Field 11
    1.1;                      !- Field 12

Schedule:Compact,
    ACTIVITY_SCH,             !- Name
    Any Number,               !- Schedule Type Limits Name
    Through: 12/31,           !- Field 1
    For: AllDays,             !- Field 2
    Until: 24:00,             !- Field 3
    120;                      !- Field 4

Schedule:Compact,
    AIR_VELO_SCH,             !- Name
    Any Number,               !- Schedule Type Limits Name
    Through: 12/31,           !- Field 1
    For: AllDays,             !- Field 2
    Until: 24:00,             !- Field 3
    0.2;                      !- Field 4

Schedule:Compact,
    CLGSETP_SCH,              !- Name
    Temperature,              !- Schedule Type Limits Name
    Through: 6/30,            !- Field 1
    For: SummerDesignDay,     !- Field 2
    Until: 24:00,             !- Field 3
    24,                       !- Field 4
    For: WeekEnds Holidays WinterDesignDay,    !- Field 5
    Until: 24:00,             !- Field 6
    27,                       !- Field 7
    For: AllOtherDays,        !- Field 8
    Until: 06:00,             !- Field 9
    27,                       !- Field 10
    Until: 21:00,             !- Field 11
    24,                       !- Field 12
    Until: 24:00,             !- Field 13
    27,                       !- Field 14
    Through: 9/1,             !- Field 15
    For: SummerDesignDay,     !- Field 16
    Until: 24:00,             !- Field 17
    24,                       !- Field 18
    For: WeekEnds Holidays WinterDesignDay,    !- Field 19
    Until: 24:00,             !- Field 20
    27,                       !- Field 21
    For: AllOtherDays,        !- Field 22
    Until: 07:00,             !- Field 23
    27,                       !- Field 24
    Until: 18:00,             !- Field 25
    24,                       !- Field 26
    Until: 24:00,             !- Field 27
    27,                       !- Field 28
    Through: 12/31,           !- Field 29
    For: SummerDesignDay,     !- Field 30
    Until: 24:00,             !- Field 31
    24,                       !- Field 32
    For: WeekEnds Holidays WinterDesignDay,    !- Field 33
    Until: 24:00,             !- Field 34
    27,                       !- Field 35
    For: AllOtherDays,        !- Field 36
    Until: 06:00,             !- Field 37
    27,                       !- Field 38
    Until: 21:00,             !- Field 39
    24,                       !- Field 40
    Until: 24:00,             !- Field 41
    27;                       !- Field 42

Schedule:Compact,
    CLGSETP_SCH_BathCorrMechKitchen,    !- Name
    Temperature,              !- Schedule Type Limits Name
    Through: 12/31,           !- Field 1
    For: SummerDesignDay,     !- Field 2
    Until: 06:00,             !- Field 3
    27,                       !- Field 4
    Until: 21:00,             !- Field 5
    24,                       !- Field 6
    Until: 24:00,             !- Field 7
    27,                       !- Field 8
    For: AllOtherDays,        !- Field 9
    Until: 24:00,             !- Field 10
    27;                       !- Field 11

Schedule:Compact,
    HTGSETP_SCH,              !- Name
    Temperature,              !- Schedule Type Limits Name
    Through: 6/30,            !- Field 1
    For: WinterDesignDay,     !- Field 2