!- Windows Line endings 

Version,
    9.2;                      !- Version Identifier

SimulationControl,
    YES,                      !- Do Zone Sizing Calculation
    YES,                      !- Do System Sizing Calculation
    YES,                      !- Do Plant Sizing Calculation
    NO,                       !- Run Simulation for Sizing Periods
    YES;                      !- Run Simulation for Weather File Run Periods

Building,
    Ref Bldg Warehouse Pre1980_v1.3_5.0,    !- Name
    0,                        !- North Axis
    City,                     !- Terrain
    0.04,                     !- Loads Convergence Tolerance Value
    0.2,                      !- Temperature Convergence Tolerance Value
    FullInteriorAndExterior,    !- Solar Distribution
    40,                       !- Maximum Number of Warmup Days
    6;                        !- Minimum Number of Warmup Days

ShadowCalculation,
    AverageOverDaysInFrequency,    !- Calculation Method
    7,                        !- Calculation Frequency
    15000;                    !- Maximum Figures in Shadow Overlap Calculations

SurfaceConvectionAlgorithm:Inside,
    TARP;                     !- Algorithm

SurfaceConvectionAlgorithm:Outside,
    DOE-2;                    !- Algorithm

HeatBalanceAlgorithm,
    ConductionTransferFunction,    !- Algorithm
    200;                      !- Surface Temperature Upper Limit

ZoneAirHeatBalanceAlgorithm,
    AnalyticalSolution;       !- Algorithm

Timestep,
    6;                        !- Number of Timesteps per Hour

ConvergenceLimits,
    2,                        !- Minimum System Timestep
    25;                       !- Maximum HVAC Iterations

Site:Location,
    USA IL-CHICAGO-OHARE,     !- Name
    41.77,                    !- Latitude
    -87.75,                   !- Longitude
    -6,                       !- Time Zone
    190;                      !- Elevation

SizingPeriod:DesignDay,
    CHICAGO Ann Htg 99.6% Condns DB,    !- Name
    1,                        !- Month
    21,                       !- Day of Month
    WinterDesignDay,          !- Day Type
    -20.6,                    !- Maximum DryBulb Temperature
    0,                        !- Daily DryBulb Temperature Range
    ,                         !- DryBulb Temperature Range Modifier Type
    ,                         !- DryBulb Temperature Range Modifier Day Schedule Name
    Wetbulb,                  !- Humidity Condition Type
    -20.6,                    !- Wetbulb or DewPoint at Maximum DryBulb
    ,                         !- Humidity Condition Day Schedule Name
    ,                         !- Humidity Ratio at Maximum DryBulb
    ,                         !- Enthalpy at Maximum DryBulb
    ,                         !- Daily WetBulb Temperature Range
    99063,                    !- Barometric Pressure
    4.9,                      !- Wind Speed
    270,                      !- Wind Direction
    No,                       !- Rain Indicator
    No,                       !- Snow Indicator
    No,                       !- Daylight Saving Time Indicator
    ASHRAEClearSky,           !- Solar Model Indicator
    ,                         !- Beam Solar Day Schedule Name
    ,                         !- Diffuse Solar Day Schedule Name
    ,                         !- ASHRAE Clear Sky Optical Depth for Beam Irradiance taub
    ,                         !- ASHRAE Clear Sky Optical Depth for Diffuse Irradiance taud
    0;                        !- Sky Clearness

SizingPeriod:DesignDay,
    CHICAGO Ann Clg .4% Condns WB=>MDB,    !- Name
    7,                        !- Month
    21,                       !- Day of Month
    SummerDesignDay,          !- Day Type
    31.2,                     !- Maximum DryBulb Temperature
    10.7,                     !- Daily DryBulb Temperature Range
    ,                         !- DryBulb Temperature Range Modifier Type
    ,                         !- DryBulb Temperature Range Modifier Day Schedule Name
    Wetbulb,                  !- Humidity Condition Type
    25.5,                     !- Wetbulb or DewPoint at Maximum DryBulb
    ,                         !- Humidity Condition Day Schedule Name
    ,                         !- Humidity Ratio at Maximum DryBulb
    ,                         !- Enthalpy at Maximum DryBulb
    ,                         !- Daily WetBulb Temperature Range
    99063,                    !- Barometric Pressure
    5.3,                      !- Wind Speed
    230,                      !- Wind Direction
    No,                       !- Rain Indicator
    No,                       !- Snow Indicator
    No,                       !- Daylight Saving Time Indicator
    ASHRAEClearSky,           !- Solar Model Indicator
    ,                         !- Beam Solar Day Schedule Name
    ,                         !- Diffuse Solar Day Schedule Name
    ,                         !- ASHRAE Clear Sky Optical Depth for Beam Irradiance taub
    ,                         !- ASHRAE Clear Sky Optical Depth for Diffuse Irradiance taud
    1;                        !- Sky Clearness

RunPeriod,
    RUNPERIOD 1,              !- Name
    1,                        !- Begin Month
    1,                        !- Begin Day of Month
    ,                         !- Begin Year
    12,                       !- End Month
    31,                       !- End Day of Month
    ,                         !- End Year
    Sunday,                   !- Day of Week for Start Day
    No,                       !- Use Weather File Holidays and Special Days
    No,                       !- Use Weather File Daylight Saving Period
    No,                       !- Apply Weekend Holiday Rule
    Yes,                      !- Use Weather File Rain Indicators
    Yes,                      !- Use Weather File Snow Indicators
    ;                         !- Treat Weather as Actual

RunPeriodControl:SpecialDays,
    New Years Day,            !- Name
    January 1,                !- Start Date
    1,                        !- Duration
    Holiday;                  !- Special Day Type

RunPeriodControl:SpecialDays,
    Veterans Day,             !- Name
    November 11,              !- Start Date
    1,                        !- Duration
    Holiday;                  !- Special Day Type

RunPeriodControl:SpecialDays,
    Christmas,                !- Name
    December 25,              !- Start Date
    1,                        !- Duration
    Holiday;                  !- Special Day Type

RunPeriodControl:SpecialDays,
    Independence Day,         !- Name
    July 4,                   !- Start Date
    1,                        !- Duration
    Holiday;                  !- Special Day Type

RunPeriodControl:SpecialDays,
    MLK Day,                  !- Name
    3rd Monday in January,    !- Start Date
    1,                        !- Duration
    Holiday;                  !- Special Day Type

RunPeriodControl:SpecialDays,
    Presidents Day,           !- Name
    3rd Monday in February,    !- Start Date
    1,                        !- Duration
    Holiday;                  !- Special Day Type

RunPeriodControl:SpecialDays,
    Memorial Day,             !- Name
    Last Monday in May,       !- Start Date
    1,                        !- Duration
    Holiday;                  !- Special Day Type

RunPeriodControl:SpecialDays,
    Labor Day,                !- Name
    1st Monday in September,    !- Start Date
    1,                        !- Duration
    Holiday;                  !- Special Day Type

RunPeriodControl:SpecialDays,
    Columbus Day,             !- Name
    2nd Monday in October,    !- Start Date
    1,                        !- Duration
    Holiday;                  !- Special Day Type

RunPeriodControl:SpecialDays,
    Thanksgiving,             !- Name
    4th Thursday in November,    !- Start Date
    1,                        !- Duration
    Holiday;                  !- Special Day Type

RunPeriodControl:DaylightSavingTime,
    2nd Sunday in March,      !- Start Date
    1st Sunday in November;    !- End Date

Site:GroundTemperature:BuildingSurface,
    10.34,                    !- January Ground Temperature
    10.19,                    !- February Ground Temperature
    11.31,                    !- March Ground Temperature
    13.07,                    !- April Ground Temperature
    16.39,                    !- May Ground Temperature
    19.3,                     !- June Ground Temperature
    22.1,                     !- July Ground Temperature
    24.2,                     !- August Ground Temperature
    21.69,                    !- September Ground Temperature
    17.32,                    !- October Ground Temperature
    14.23,                    !- November Ground Temperature
    11.34;                    !- December Ground Temperature

Site:WaterMainsTemperature,
    CORRELATION,              !- Calculation Method
    ,                         !- Temperature Schedule Name
    9.69,                     !- Annual Average Outdoor Air Temperature
    28.1;                     !- Maximum Difference In Monthly Average Outdoor Air Temperatures

ScheduleTypeLimits,
    Any Number;               !- Name

ScheduleTypeLimits,
    Fraction,                 !- Name
    0.0,                      !- Lower Limit Value
    1.0,                      !- Upper Limit Value
    CONTINUOUS;               !- Numeric Type

ScheduleTypeLimits,
    Temperature,              !- Name
    -60,                      !- Lower Limit Value
    200,                      !- Upper Limit Value
    CONTINUOUS;               !- Numeric Type

ScheduleTypeLimits,
    On/Off,                   !- Name
    0,                        !- Lower Limit Value
    1,                        !- Upper Limit Value
    DISCRETE;                 !- Numeric Type

ScheduleTypeLimits,
    Control Type,             !- Name
    0,                        !- Lower Limit Value
    4,                        !- Upper Limit Value
    DISCRETE;                 !- Numeric Type

ScheduleTypeLimits,
    Humidity,                 !- Name
    10,                       !- Lower Limit Value
    90,                       !- Upper Limit Value
    CONTINUOUS;               !- Numeric Type

ScheduleTypeLimits,
    Number;                   !- Name

Schedule:Compact,
    ALWAYS_ON,                !- Name
    On/Off,                   !- Schedule Type Limits Name
    Through: 12/31,           !- Field 1
    For: AllDays,             !- Field 2
    Until: 24:00,             !- Field 3
    1;                        !- Field 4

Schedule:Compact,
    ACTIVITY_SCH,             !- Name
    Any Number,               !- Schedule Type Limits Name
    Through: 12/31,           !- Field 1
    For: AllDays,             !- Field 2
    Until: 24:00,             !- Field 3
    120.;                     !- Field 4

Schedule:Compact,
    AIR_VELO_SCH,             !- Name
    Any Number,               !- Schedule Type Limits Name
    Through: 12/31,           !- Field 1
    For: AllDays,             !- Field 2
    Until: 24:00,             !- Field 3
    0.2;                      !- Field 4

Schedule:Compact,
    BLDG_EQUIP_SCH,           !- Name
    Fraction,                 !- Schedule Type Limits Name
    Through: 12/31,           !- Field 1
    For: Weekdays,            !- Field 2
    Until: 07:00,             !- Field 3
    0.1,                      !- Field 4
    Until: 08:00,             !- Field 5
    0.5,                      !- Field 6
    Until: 09:00,             !- Field 7
    0.8,                      !- Field 8
    Until: 12:00,             !- Field 9
    0.9,                      !- Field 10
    Until: 13:00,             !- Field 11
    0.8,                      !- Field 12
    Until: 17:00,             !- Field 13
    0.9,                      !- Field 14
    Until: 18:00,             !- Field 15
    0.4,                      !- Field 16
    Until: 24:00,             !- Field 17
    0.1,                      !- Field 18
    For: Saturday,            !- Field 19
    Until: 08:00,             !- Field 20
    0.1,                      !- Field 21
    Until: 09:00,             !- Field 22
    0.2,                      !- Field 23
    Until: 12:00,             !- Field 24
    0.4,                      !- Field 25
    Until: 24:00,             !- Field 26
    0.1,                      !- Field 27
    For: SummerDesignDay,     !- Field 28
    Until: 24:00,             !- Field 29
    1.0,                      !- Field 30
    For: WinterDesignDay,     !- Field 31
    Until: 24:00,             !- Field 32
    0.0,                      !- Field 33
    For: Sunday Holidays AllOtherDays,    !- Field 34
    Until: 24:00,             !- Field 35
    0.1;                      !- Field 36

Schedule:Compact,
    BLDG_LIGHT_SCH,           !- Name
    Fraction,                 !- Schedule Type Limits Name
    Through: 12/31,           !- Field 1
    For: Weekdays,            !- Field 2
    Until: 07:00,             !- Field 3
    0.1,                      !- Field 4
    Until: 08:00,             !- Field 5
    0.4,                      !- Field 6
    Until: 09:00,             !- Field 7
    0.7,                      !- Field 8
    Until: 12:00,             !- Field 9
    0.9,                      !- Field 10
    Until: 13:00,             !- Field 11
    0.8,                      !- Field 12
    Until: 17:00,             !- Field 13
    0.9,                      !- Field 14
    Until: 18:00,             !- Field 15
    0.3,                      !- Field 16
    Until: 24:00,             !- Field 17
    0.1,                      !- Field 18
    For: Saturday,            !- Field 19
    Until: 08:00,             !- Field 20
    0.1,                      !- Field 21
    Until: 09:00,             !- Field 22
    0.1,                      !- Field 23
    Until: 12:00,             !- Field 24
    0.24,                     !- Field 25
    Until: 24:00,             !- Field 26
    0.1,                      !- Field 27
    For: SummerDesignDay,     !- Field 28
    Until: 24:00,             !- Field 29
    1.0,                      !- Field 30
    For: WinterDesignDay,     !- Field 31
    Until: 24:00,             !- Field 32
    0.0,                      !- Field 33
    For: Sunday Holidays AllOtherDays,    !- Field 34
    Until: 24:00,             !- Field 35
    0.1;                      !- Field 36

Schedule:Compact,
    BLDG_OCC_SCH,             !- Name
    Fraction,                 !- Schedule Type Limits Name
    Through: 12/31,           !- Field 1
    For: Weekdays,            !- Field 2
    Until: 07:00,             !- Field 3
    0.0,                      !- Field 4
    Until: 08:00,             !- Field 5
    0.15,                     !- Field 6
    Until: 09:00,             !- Field 7
    0.7,                      !- Field 8
    Until: 12:00,             !- Field 9
    0.9,                      !- Field 10
    Until: 13:00,             !- Field 11
    0.5,                      !- Field 12
    Until: 16:00,             !- Field 13
    0.85,                     !- Field 14
    Until: 17:00,             !- Field 15
    0.2,                      !- Field 16
    Until: 24:00,             !- Field 17
    0.0,                      !- Field 18
    For: SummerDesignDay,     !- Field 19
    Until: 24:00,             !- Field 20
    1.0,                      !- Field 21
    For: Saturday,            !- Field 22
    Until: 08:00,             !- Field 23
    0.0,                      !- Field 24
    Until: 12:00,             !- Field 25
    0.2,                      !- Field 26
    Until: 16:00,             !- Field 27
    0.1,                      !- Field 28
    Until: 24:00,             !- Field 29
    0.0,                      !- Field 30
    For: WinterDesignDay,     !- Field 31
    Until: 24:00,             !- Field 32
    0.0,                      !- Field 33
    For: Sunday Holidays AllOtherDays,    !- Field 34
    Until: 24:00,             !- Field 35
    0.0;                      !- Field 36

Schedule:Compact,
    CLOTHING_SCH,             !- Name
    Any Number,               !- Schedule Type Limits Name
    Through: 04/30,           !- Field 1
    For: AllDays,             !- Field 2
    Until: 24:00,             !- Field 3
    1.0,                      !- Field 4
    Through: 09/30,           !- Field 5
    For: AllDays,             !- Field 6
    Until: 24:00,             !- Field 7
    0.5,                      !- Field 8
    Through: 12/31,           !- Field 9
    For: AllDays,             !- Field 10
    Until: 24:00,             !- Field 11
    1.0;                      !- Field 12

Schedule:Compact,
    WORK_EFF_SCH,             !- Name
    Fraction,                 !- Schedule Type Limits Name
    Through: 12/31,           !- Field 1
    For: AllDays,             !- Field 2
    Until: 24:00,             !- Field 3
    0.0;                      !- Field 4

Schedule:Compact,
    CLGSETP_FineStorage_SCH,    !- Name
    Temperature,              !- Schedule Type Limits Name
    Through: 12/31,           !- Field 1
    For: AllDays,             !- Field 2
    Until: 24:00,             !- Field 3
    26.7;                     !- Field 4

Schedule:Compact,
    CLGSETP_SCH,              !- Name
    Temperature,              !- Schedule Type Limits Name
    Through: 12/31,           !- Field 1
    For: Weekdays SummerDesignDay,    !- Field 2
    Until: 07:00,             !- Field 3
    30.0,                     !- Field 4
    Until: 17:00,             !- Field 5
    24.0,                     !- Field 6
    Until: 24:00,             !- Field 7
    30.0,                     !- Field 8
    For: Saturday,            !- Field 9
    Until: 08:00,             !- Field 10
    30.0,                     !- Field 11
    Until: 16:00,             !- Field 12
    24.0,                     !- Field 13
    Until: 24:00,             !- Field 14
    30.0,                     !- Field 15
    For: AllOtherDays,        !- Field 16
    Until: 24:00,             !- Field 17
    30.0;                     !- Field 18

Schedule:Compact,
    Dual Zone Control Type Sched,    !- Name
    Control Type,             !- Schedule Type Limits Name
    Through: 12/31,           !- Field 1
    For: AllDays,             !- Field 2
    Until: 24:00,             !- Field 3
    4;                        !- Field 4

Schedule:Compact,
    HTGSETP_BulkStorage_SCH,    !- Name
    Temperature,              !- Schedule Type Limits Name
    Through: 12/31,           !- Field 1
    For: AllDays,             !- Field 2
    Until: 24:00,             !- Field 3
    7.2;                      !- Field 4

Schedule:Compact,
    HTGSETP_FineStorage_SCH,    !- Name
    Temperature,              !- Schedule Type Limits Name
    Through: 12/31,           !- Field 1
    For: AllDays,             !- Field 2
    Until: 24:00,             !- Field 3
    15.6;                     !- Field 4

Schedule:Compact,
    HTGSETP_SCH,              !- Name
    Temperature,              !- Schedule Type Limits Name
    Through: 12/31,           !- Field 1
    For: Weekdays,            !- Field 2
    Until: 06:00,             !- Field 3
    15.5,                     !- Field 4
    Until: 17:00,             !- Field 5
    21.0,                     !- Field 6
    Until: 24:00,             !- Field 7
    15.5,                     !- Field 8
    For WinterDesignDay,      !- Field 9
    Until: 24:00,             !- Field 10
    21.0,                     !- Field 11
    For: Saturday,            !- Field 12
    Until: 07:00,             !- Field 13
    15.5,                     !- Field 14
    Until: 16:00,             !- Field 15
    21.0,                     !- Field 16
    Until: 24:00,             !- Field 17
    15.5,                     !- Field 18
    For: AllOtherDays,        !- Field 19
    Until: 24:00,             !- Field 20
    15.5;                     !- Field 21

Schedule:Compact,
    HVACOperationSchd,        !- Name
    On/Off,                   !- Schedule Type Limits Name
    Through: 12/31,           !- Field 1
    For: Weekdays SummerDesignDay,    !- Field 2
    Until: 06:00,             !- Field 3
    0.0,                      !- Field 4
    Until: 17:00,             !- Field 5
    1.0,                      !- Field 6
    Until: 24:00,             !- Field 7
    0.0,                      !- Field 8
    For: Saturday WinterDesignDay,    !- Field 9
    Until: 07:00,             !- Field 10
    0.0,                      !- Field 11
    Until: 16:00,             !- Field 12
    1.0,                      !- Field 13
    Until: 24:00,             !- Field 14
    0.0,                      !- Field 15
    For: AllOtherDays,        !- Field 16
    Until: 24:00,             !- Field 17
    0.0;                      !- Field 18

Schedule:Compact,
    MinOA_Sched,              !- Name
    Fraction,                 !- Schedule Type Limits Name
    Through: 12/31,           !- Field 1
    For: Weekdays SummerDesignDay,    !- Field 2
    Until: 06:00,             !- Field 3
    0.0,                      !- Field 4
    Until: 17:00,             !- Field 5
    1.0,                      !- Field 6
    Until: 24:00,             !- Field 7
    0.0,                      !- Field 8
    For: Saturday WinterDesignDay,    !- Field 9
    Until: 07:00,             !- Field 10
    0.0,                      !- Field 11
    Until: 16:00,             !- Field 12
    1.0,                      !- Field 13
    Until: 24:00,             !- Field 14
    0.0,                      !- Field 15
    For: AllOtherDays,        !- Field 16
    Until: 24:00,             !- Field 17
    0.0;                      !- Field 18

Material,
    Metal Building Semi-Cond Wall Insulation,    !- Name
    MediumRough,              !- Roughness
    0.0347077164355419,       !- Thickness
    0.049,                    !- Conductivity
    265,                      !- Density
    836.8,                    !- Specific Heat
    0.9,                      !- Thermal Absorptance
    0.7,                      !- Solar Absorptance
    0.7;                      !- Visible Absorptance

Material,
    IEAD Semi-Cond Roof Insulation,    !- Name
    MediumRough,              !- Roughness
    0.110216071059399,        !- Thickness
    0.049,                    !- Conductivity
    265,                      !- Density
    836.8,                    !- Specific Heat
    0.9,                      !- Thermal Absorptance
    0.7,                      !- Solar Absorptance
    0.7;                      !- Visible Absorptance

Material,
    Std Wood 6inch,           !- Name
    MediumSmooth,             !- Roughness
    0.15,                     !- Thickness
    0.12,                     !- Conductivity
    540,                      !- Density
    1210,                     !- Specific Heat
    0.9,                      !- Thermal Absorptance
    0.7,                      !- Solar Absorptance
    0.7;                      !- Visible Absorptance

Material,
    Wood Siding,              !- Name
    MediumSmooth,             !- Roughness
    0.01,                     !- Thickness
    0.11,                     !- Conductivity
    544.62,                   !- Density
    1210,                     !- Specific Heat
    0.9,                      !- Thermal Absorptance
    0.78,                     !- Solar Absorptance
    0.78;                     !- Visible Absorptance

Material,
    1/2IN Gypsum,             !- Name
    Smooth,                   !- Roughness
    0.0127,                   !- Thickness
    0.16,                     !- Conductivity
    784.9,                    !- Density
    830,                      !- Specific Heat
    0.9,                      !- Thermal Absorptance
    0.92,                     !- Solar Absorptance
    0.92;                     !- Visible Absorptance

Material,
    1IN Stucco,               !- Name
    Smooth,                   !- Roughness
    0.0253,                   !- Thickness
    0.6918,                   !- Conductivity
    1858,                     !- Density
    837,                      !- Specific Heat
    0.9,                      !- Thermal Absorptance
    0.92,                     !- Solar Absorptance
    0.92;                     !- Visible Absorptance

Material,
    8IN CONCRETE HW,          !- Name
    Rough,                    !- Roughness
    0.2032,                   !- Thickness
    1.311,                    !- Conductivity
    2240,                     !- Density
    836.8,                    !- Specific Heat
    0.9,                      !- Thermal Absorptance
    0.7,                      !- Solar Absorptance
    0.7;                      !- Visible Absorptance

Material,
    Metal Siding,             !- Name
    Smooth,                   !- Roughness
    0.0015,                   !- Thickness
    44.96,                    !- Conductivity
    7688.86,                  !- Density
    410,                      !- Specific Heat
    0.9,                      !- Thermal Absorptance
    0.2,                      !- Solar Absorptance
    0.2;                      !- Visible Absorptance

Material,
    HW CONCRETE,              !- Name
    Rough,                    !- Roughness
    0.2032,                   !- Thickness
    1.311,                    !- Conductivity
    2240,                     !- Density
    836.8,                    !- Specific Heat
    0.9,                      !- Thermal Absorptance
    0.7,                      !- Solar Absorptance
    0.7;                      !- Visible Absorptance

Material,
    Roof Membrane,            !- Name
    VeryRough,                !- Roughness
    0.0095,                   !- Thickness
    0.16,                     !- Conductivity
    1121.29,                  !- Density
    1460,                     !- Specific Heat
    0.9,                      !- Thermal Absorptance
    0.7,                      !- Solar Absorptance
    0.7;                      !- Visible Absorptance

Material,
    Metal Decking,            !- Name
    MediumSmooth,             !- Roughness
    0.0015,                   !- Thickness
    45.006,                   !- Conductivity
    7680,                     !- Density
    418.4,                    !- Specific Heat
    0.9,                      !- Thermal Absorptance
    0.7,                      !- Solar Absorptance
    0.3;                      !- Visible Absorptance

Material,
    Metal Roofing,            !- Name
    MediumSmooth,             !- Roughness
    0.0015,                   !- Thickness
    45.006,                   !- Conductivity
    7680,                     !- Density
    418.4,                    !- Specific Heat
    0.9,                      !- Thermal Absorptance
    0.7,                      !- Solar Absorptance
    0.3;                      !- Visible Absorptance

Material,
    MAT-CC05 4 HW CONCRETE,    !- Name
    Rough,                    !- Roughness
    0.1016,                   !- Thickness
    1.311,                    !- Conductivity
    2240,                     !- Density
    836.8,                    !- Specific Heat
    0.9,                      !- Thermal Absorptance
    0.7,                      !- Solar Absorptance
    0.7;                      !- Visible Absorptance

Material,
    Std AC02,                 !- Name
    MediumSmooth,             !- Roughness
    0.0127,                   !- Thickness
    0.057,                    !- Conductivity
    288,                      !- Density
    1339,                     !- Specific Heat
    0.9,                      !- Thermal Absorptance
    0.7,                      !- Solar Absorptance
    0.2;                      !- Visible Absorptance

Material:NoMass,
    Opaque Door panel Semi-Cond,    !- Name
    MediumRough,              !- Roughness
    0.101897046243647,        !- Thermal Resistance
    0.9,                      !- Thermal Absorptance
    0.7,                      !- Solar Absorptance
    0.7;                      !- Visible Absorptance

Material:NoMass,
    Std Overhead Door Panel Semi-Cond,    !- Name
    MediumRough,              !- Roughness
    0.001,                    !- Thermal Resistance
    0.9,                      !- Thermal Absorptance
    0.7,                      !- Solar Absorptance
    0.7;                      !- Visible Absorptance

Material:NoMass,
    CP02 CARPET PAD,          !- Name
    VeryRough,                !- Roughness
    0.2165,                   !- Thermal Resistance
    0.9,                      !- Thermal Absorptance
    0.7,                      !- Solar Absorptance
    0.8;                      !- Visible Absorptance

Material:NoMass,
    MAT-AIR-WALL,             !- Name
    Rough,                    !- Roughness
    0.2079491,                !- Thermal Resistance
    0.9,                      !- Thermal Absorptance
    0.7;                      !- Solar Absorptance

WindowMaterial:SimpleGlazingSystem,
    Semi-Cond Fixed Assembly Window,    !- Name
    3.52036,                  !- UFactor
    0.41,                     !- Solar Heat Gain Coefficient
    ;                         !- Visible Transmittance

Construction,
    Metal Bldg Semi-Cond Ext Wall,    !- Name
    Metal Siding,             !- Outside Layer
    Metal Building Semi-Cond Wall Insulation,    !- Layer 2
    1/2IN Gypsum;             !- Layer 3

Construction,
    IEAD Semi-Cond Roof,      !- Name
    Roof Membrane,            !- Outside Layer
    IEAD Semi-Cond Roof Insulation,    !- Layer 2
    Metal Decking;            !- Layer 3

Construction,
    ext-slab,                 !- Name
    HW CONCRETE;              !- Outside Layer

Construction,
    int-walls,                !- Name
    1/2IN Gypsum,             !- Outside Layer
    1/2IN Gypsum;             !- Layer 2

Construction,
    Window Semi-Cond Fixed,    !- Name
    Semi-Cond Fixed Assembly Window;    !- Outside Layer

Construction,
    Swinging Door Semi-Cond,    !- Name
    Opaque Door panel Semi-Cond;    !- Outside Layer

Construction,
    Overhead Door Semi-Cond,    !- Name