!- Windows Line endings 

Version,
    9.2;                      !- Version Identifier

SimulationControl,
    YES,                      !- Do Zone Sizing Calculation
    YES,                      !- Do System Sizing Calculation
    YES,                      !- Do Plant Sizing Calculation
    NO,                       !- Run Simulation for Sizing Periods
    YES;                      !- Run Simulation for Weather File Run Periods

Building,
    Ref Bldg Quick Service Restaurant New2004_v1.3_5.0,    !- Name
    0,                        !- North Axis
    City,                     !- Terrain
    0.04,                     !- Loads Convergence Tolerance Value
    0.2,                      !- Temperature Convergence Tolerance Value
    FullInteriorAndExterior,    !- Solar Distribution
    25,                       !- Maximum Number of Warmup Days
    6;                        !- Minimum Number of Warmup Days

ShadowCalculation,
    AverageOverDaysInFrequency,    !- Calculation Method
    7,                        !- Calculation Frequency
    15000;                    !- Maximum Figures in Shadow Overlap Calculations

SurfaceConvectionAlgorithm:Inside,
    TARP;                     !- Algorithm

SurfaceConvectionAlgorithm:Outside,
    DOE-2;                    !- Algorithm

HeatBalanceAlgorithm,
    ConductionTransferFunction,    !- Algorithm
    200;                      !- Surface Temperature Upper Limit

ZoneAirHeatBalanceAlgorithm,
    AnalyticalSolution;       !- Algorithm

Timestep,
    4;                        !- Number of Timesteps per Hour

ConvergenceLimits,
    2,                        !- Minimum System Timestep
    25;                       !- Maximum HVAC Iterations

Site:Location,
    USA IL-CHICAGO-OHARE,     !- Name
    41.77,                    !- Latitude
    -87.75,                   !- Longitude
    -6,                       !- Time Zone
    190;                      !- Elevation

SizingPeriod:DesignDay,
    CHICAGO Ann Htg 99.6% Condns DB,    !- Name
    1,                        !- Month
    21,                       !- Day of Month
    WinterDesignDay,          !- Day Type
    -20.6,                    !- Maximum DryBulb Temperature
    0,                        !- Daily DryBulb Temperature Range
    ,                         !- DryBulb Temperature Range Modifier Type
    ,                         !- DryBulb Temperature Range Modifier Day Schedule Name
    Wetbulb,                  !- Humidity Condition Type
    -20.6,                    !- Wetbulb or DewPoint at Maximum DryBulb
    ,                         !- Humidity Condition Day Schedule Name
    ,                         !- Humidity Ratio at Maximum DryBulb
    ,                         !- Enthalpy at Maximum DryBulb
    ,                         !- Daily WetBulb Temperature Range
    99063,                    !- Barometric Pressure
    4.9,                      !- Wind Speed
    270,                      !- Wind Direction
    No,                       !- Rain Indicator
    No,                       !- Snow Indicator
    No,                       !- Daylight Saving Time Indicator
    ASHRAEClearSky,           !- Solar Model Indicator
    ,                         !- Beam Solar Day Schedule Name
    ,                         !- Diffuse Solar Day Schedule Name
    ,                         !- ASHRAE Clear Sky Optical Depth for Beam Irradiance taub
    ,                         !- ASHRAE Clear Sky Optical Depth for Diffuse Irradiance taud
    0;                        !- Sky Clearness

SizingPeriod:DesignDay,
    CHICAGO Ann Clg .4% Condns WB=>MDB,    !- Name
    7,                        !- Month
    21,                       !- Day of Month
    SummerDesignDay,          !- Day Type
    31.2,                     !- Maximum DryBulb Temperature
    10.7,                     !- Daily DryBulb Temperature Range
    ,                         !- DryBulb Temperature Range Modifier Type
    ,                         !- DryBulb Temperature Range Modifier Day Schedule Name
    Wetbulb,                  !- Humidity Condition Type
    25.5,                     !- Wetbulb or DewPoint at Maximum DryBulb
    ,                         !- Humidity Condition Day Schedule Name
    ,                         !- Humidity Ratio at Maximum DryBulb
    ,                         !- Enthalpy at Maximum DryBulb
    ,                         !- Daily WetBulb Temperature Range
    99063,                    !- Barometric Pressure
    5.3,                      !- Wind Speed
    230,                      !- Wind Direction
    No,                       !- Rain Indicator
    No,                       !- Snow Indicator
    No,                       !- Daylight Saving Time Indicator
    ASHRAEClearSky,           !- Solar Model Indicator
    ,                         !- Beam Solar Day Schedule Name
    ,                         !- Diffuse Solar Day Schedule Name
    ,                         !- ASHRAE Clear Sky Optical Depth for Beam Irradiance taub
    ,                         !- ASHRAE Clear Sky Optical Depth for Diffuse Irradiance taud
    1;                        !- Sky Clearness

RunPeriod,
    RUNPERIOD 1,              !- Name
    1,                        !- Begin Month
    1,                        !- Begin Day of Month
    ,                         !- Begin Year
    12,                       !- End Month
    31,                       !- End Day of Month
    ,                         !- End Year
    Sunday,                   !- Day of Week for Start Day
    No,                       !- Use Weather File Holidays and Special Days
    No,                       !- Use Weather File Daylight Saving Period
    No,                       !- Apply Weekend Holiday Rule
    Yes,                      !- Use Weather File Rain Indicators
    Yes,                      !- Use Weather File Snow Indicators
    ;                         !- Treat Weather as Actual

RunPeriodControl:SpecialDays,
    New Years Day,            !- Name
    January 1,                !- Start Date
    1,                        !- Duration
    Holiday;                  !- Special Day Type

RunPeriodControl:SpecialDays,
    Veterans Day,             !- Name
    November 11,              !- Start Date
    1,                        !- Duration
    Holiday;                  !- Special Day Type

RunPeriodControl:SpecialDays,
    Christmas,                !- Name
    December 25,              !- Start Date
    1,                        !- Duration
    Holiday;                  !- Special Day Type

RunPeriodControl:SpecialDays,
    Independence Day,         !- Name
    July 4,                   !- Start Date
    1,                        !- Duration
    Holiday;                  !- Special Day Type

RunPeriodControl:SpecialDays,
    MLK Day,                  !- Name
    3rd Monday in January,    !- Start Date
    1,                        !- Duration
    Holiday;                  !- Special Day Type

RunPeriodControl:SpecialDays,
    Presidents Day,           !- Name
    3rd Monday in February,    !- Start Date
    1,                        !- Duration
    Holiday;                  !- Special Day Type

RunPeriodControl:SpecialDays,
    Memorial Day,             !- Name
    Last Monday in May,       !- Start Date
    1,                        !- Duration
    Holiday;                  !- Special Day Type

RunPeriodControl:SpecialDays,
    Labor Day,                !- Name
    1st Monday in September,    !- Start Date
    1,                        !- Duration
    Holiday;                  !- Special Day Type

RunPeriodControl:SpecialDays,
    Columbus Day,             !- Name
    2nd Monday in October,    !- Start Date
    1,                        !- Duration
    Holiday;                  !- Special Day Type

RunPeriodControl:SpecialDays,
    Thanksgiving,             !- Name
    4th Thursday in November,    !- Start Date
    1,                        !- Duration
    Holiday;                  !- Special Day Type

RunPeriodControl:DaylightSavingTime,
    2nd Sunday in March,      !- Start Date
    1st Sunday in November;    !- End Date

Site:GroundTemperature:BuildingSurface,
    19.527,                   !- January Ground Temperature
    19.502,                   !- February Ground Temperature
    19.536,                   !- March Ground Temperature
    19.598,                   !- April Ground Temperature
    20.002,                   !- May Ground Temperature
    21.64,                    !- June Ground Temperature
    22.225,                   !- July Ground Temperature
    22.375,                   !- August Ground Temperature
    21.449,                   !- September Ground Temperature
    20.121,                   !- October Ground Temperature
    19.802,                   !- November Ground Temperature
    19.633;                   !- December Ground Temperature

Site:WaterMainsTemperature,
    CORRELATION,              !- Calculation Method
    ,                         !- Temperature Schedule Name
    9.69,                     !- Annual Average Outdoor Air Temperature
    28.1;                     !- Maximum Difference In Monthly Average Outdoor Air Temperatures

ScheduleTypeLimits,
    Any Number;               !- Name

ScheduleTypeLimits,
    Fraction,                 !- Name
    0.0,                      !- Lower Limit Value
    1.0,                      !- Upper Limit Value
    CONTINUOUS;               !- Numeric Type

ScheduleTypeLimits,
    Temperature,              !- Name
    -60,                      !- Lower Limit Value
    200,                      !- Upper Limit Value
    CONTINUOUS;               !- Numeric Type

ScheduleTypeLimits,
    On/Off,                   !- Name
    0,                        !- Lower Limit Value
    1,                        !- Upper Limit Value
    DISCRETE;                 !- Numeric Type

ScheduleTypeLimits,
    Control Type,             !- Name
    0,                        !- Lower Limit Value
    4,                        !- Upper Limit Value
    DISCRETE;                 !- Numeric Type

ScheduleTypeLimits,
    Humidity,                 !- Name
    10,                       !- Lower Limit Value
    90,                       !- Upper Limit Value
    CONTINUOUS;               !- Numeric Type

ScheduleTypeLimits,
    Number;                   !- Name

Schedule:Compact,
    ALWAYS_ON,                !- Name
    On/Off,                   !- Schedule Type Limits Name
    Through: 12/31,           !- Field 1
    For: AllDays,             !- Field 2
    Until: 24:00,             !- Field 3
    1;                        !- Field 4

Schedule:Compact,
    ACTIVITY_SCH,             !- Name
    Any Number,               !- Schedule Type Limits Name
    Through: 12/31,           !- Field 1
    For: AllDays,             !- Field 2
    Until: 24:00,             !- Field 3
    120.;                     !- Field 4

Schedule:Compact,
    AIR_VELO_SCH,             !- Name
    Any Number,               !- Schedule Type Limits Name
    Through: 12/31,           !- Field 1
    For: AllDays,             !- Field 2
    Until: 24:00,             !- Field 3
    0.2;                      !- Field 4

Schedule:Compact,
    BLDG_EQUIP_SCH,           !- Name
    Fraction,                 !- Schedule Type Limits Name
    Through: 12/31,           !- Field 1
    For: Weekday,             !- Field 2
    Until: 06:00,             !- Field 3
    0.10,                     !- Field 4
    Until: 08:00,             !- Field 5
    0.35,                     !- Field 6
    Until: 10:00,             !- Field 7
    0.25,                     !- Field 8
    Until: 14:00,             !- Field 9
    0.35,                     !- Field 10
    Until: 17:00,             !- Field 11
    0.25,                     !- Field 12
    Until: 20:00,             !- Field 13
    0.35,                     !- Field 14
    Until: 24:00,             !- Field 15
    0.25,                     !- Field 16
    For: Saturday,            !- Field 17
    Until: 06:00,             !- Field 18
    0.10,                     !- Field 19
    Until: 08:00,             !- Field 20
    0.35,                     !- Field 21
    Until: 10:00,             !- Field 22
    0.25,                     !- Field 23
    Until: 14:00,             !- Field 24
    0.35,                     !- Field 25
    Until: 17:00,             !- Field 26
    0.25,                     !- Field 27
    Until: 20:00,             !- Field 28
    0.35,                     !- Field 29
    Until: 24:00,             !- Field 30
    0.25,                     !- Field 31
    For: SummerDesignDay,     !- Field 32
    Until: 24:00,             !- Field 33
    0.35,                     !- Field 34
    For: WinterDesignDay,     !- Field 35
    Until: 24:00,             !- Field 36
    0.0,                      !- Field 37
    For: Sunday Holidays AllOtherDays,    !- Field 38
    Until: 06:00,             !- Field 39
    0.10,                     !- Field 40
    Until: 08:00,             !- Field 41
    0.35,                     !- Field 42
    Until: 10:00,             !- Field 43
    0.25,                     !- Field 44
    Until: 14:00,             !- Field 45
    0.35,                     !- Field 46
    Until: 17:00,             !- Field 47
    0.25,                     !- Field 48
    Until: 20:00,             !- Field 49
    0.35,                     !- Field 50
    Until: 24:00,             !- Field 51
    0.25;                     !- Field 52

Schedule:Compact,
    BLDG_LIGHT_SCH,           !- Name
    Fraction,                 !- Schedule Type Limits Name
    Through: 12/31,           !- Field 1
    For: SummerDesignDay,     !- Field 2
    Until: 24:00,             !- Field 3
    1.0,                      !- Field 4
    For: WinterDesignDay,     !- Field 5
    Until: 24:00,             !- Field 6
    0.0,                      !- Field 7
    For: Weekday Saturday Sunday Holidays AllOtherDays,    !- Field 8
    Until: 01:00,             !- Field 9
    0.45,                     !- Field 10
    Until: 05:00,             !- Field 11
    0.15,                     !- Field 12
    Until: 06:00,             !- Field 13
    0.45,                     !- Field 14
    Until: 24:00,             !- Field 15
    0.90;                     !- Field 16

Schedule:Compact,
    BLDG_OCC_SCH,             !- Name
    Fraction,                 !- Schedule Type Limits Name
    Through: 12/31,           !- Field 1
    For: Weekdays,            !- Field 2
    Until: 01:00,             !- Field 3
    0.05,                     !- Field 4
    Until: 05:00,             !- Field 5
    0.0,                      !- Field 6
    Until: 06:00,             !- Field 7
    0.05,                     !- Field 8
    Until: 07:00,             !- Field 9
    0.1,                      !- Field 10
    Until: 09:00,             !- Field 11
    0.4,                      !- Field 12
    Until: 10:00,             !- Field 13
    0.3,                      !- Field 14
    Until: 11:00,             !- Field 15
    0.2,                      !- Field 16
    Until: 12:00,             !- Field 17
    0.5,                      !- Field 18
    Until: 13:00,             !- Field 19
    0.8,                      !- Field 20
    Until: 14:00,             !- Field 21
    0.7,                      !- Field 22
    Until: 15:00,             !- Field 23
    0.4,                      !- Field 24
    Until: 16:00,             !- Field 25
    0.2,                      !- Field 26
    Until: 17:00,             !- Field 27
    0.25,                     !- Field 28
    Until: 18:00,             !- Field 29
    0.5,                      !- Field 30
    Until: 21:00,             !- Field 31
    0.55,                     !- Field 32
    Until: 22:00,             !- Field 33
    0.5,                      !- Field 34
    Until: 23:00,             !- Field 35
    0.35,                     !- Field 36
    Until: 24:00,             !- Field 37
    0.2,                      !- Field 38
    For: SummerDesignDay,     !- Field 39
    Until: 24:00,             !- Field 40
    1.0,                      !- Field 41
    For: WinterDesignDay,     !- Field 42
    Until: 24:00,             !- Field 43
    0.0,                      !- Field 44
    For: Saturday Sunday Holidays AllOtherDays,    !- Field 45
    Until: 01:00,             !- Field 46
    0.05,                     !- Field 47
    Until: 05:00,             !- Field 48
    0.0,                      !- Field 49
    Until: 07:00,             !- Field 50
    0.05,                     !- Field 51
    Until: 10:00,             !- Field 52
    0.3,                      !- Field 53
    Until: 11:00,             !- Field 54
    0.2,                      !- Field 55
    Until: 12:00,             !- Field 56
    0.45,                     !- Field 57
    Until: 13:00,             !- Field 58
    0.6,                      !- Field 59
    Until:14:00,              !- Field 60
    0.5,                      !- Field 61
    Until: 15:00,             !- Field 62
    0.35,                     !- Field 63
    Until: 18:00,             !- Field 64
    0.3,                      !- Field 65
    Until: 21:00,             !- Field 66
    0.55,                     !- Field 67
    Until: 22:00,             !- Field 68
    0.5,                      !- Field 69
    Until: 23:00,             !- Field 70
    0.35,                     !- Field 71
    Until: 24:00,             !- Field 72
    0.2;                      !- Field 73

Schedule:Compact,
    GAS_EQUIP_SCH,            !- Name
    Fraction,                 !- Schedule Type Limits Name
    Through: 12/31,           !- Field 1
    For: SummerDesignDay,     !- Field 2
    Until: 24:00,             !- Field 3
    0.25,                     !- Field 4
    For: WinterDesignDay,     !- Field 5
    Until: 24:00,             !- Field 6
    0.0,                      !- Field 7
    For: AllOtherDays,        !- Field 8
    Until: 05:00,             !- Field 9
    0.02,                     !- Field 10
    Until: 06:00,             !- Field 11
    0.03,                     !- Field 12
    Until: 07:00,             !- Field 13
    0.09,                     !- Field 14
    Until: 08:00,             !- Field 15
    0.14,                     !- Field 16
    Until: 10:00,             !- Field 17
    0.10,                     !- Field 18
    Until: 11:00,             !- Field 19
    0.22,                     !- Field 20
    Until: 12:00,             !- Field 21
    0.27,                     !- Field 22
    Until: 13:00,             !- Field 23
    0.24,                     !- Field 24
    Until: 14:00,             !- Field 25
    0.21,                     !- Field 26
    Until: 15:00,             !- Field 27
    0.14,                     !- Field 28
    Until:16:00,              !- Field 29
    0.13,                     !- Field 30
    Until:17:00,              !- Field 31
    0.15,                     !- Field 32
    Until: 20:00,             !- Field 33
    0.17,                     !- Field 34
    Until: 21:00,             !- Field 35
    0.15,                     !- Field 36
    Until: 22:00,             !- Field 37
    0.14,                     !- Field 38
    Until: 23:00,             !- Field 39
    0.12,                     !- Field 40
    Until: 24:00,             !- Field 41
    0.02;                     !- Field 42

Schedule:Compact,
    INFIL_HALF_ON_SCH,        !- Name
    Fraction,                 !- Schedule Type Limits Name
    Through: 12/31,           !- Field 1
    For: Weekdays SummerDesignDay,    !- Field 2
    Until: 05:00,             !- Field 3
    1.0,                      !- Field 4
    Until: 24:00,             !- Field 5
    0.5,                      !- Field 6
    For: Saturday WinterDesignDay,    !- Field 7
    Until: 05:00,             !- Field 8
    1.0,                      !- Field 9
    Until: 24:00,             !- Field 10
    0.5,                      !- Field 11
    For: Sunday Holidays AllOtherDays,    !- Field 12
    Until: 05:00,             !- Field 13
    1.0,                      !- Field 14
    Until: 24:00,             !- Field 15
    0.5;                      !- Field 16

Schedule:Compact,
    Kitchen_Exhaust_SCH,      !- Name
    On/Off,                   !- Schedule Type Limits Name
    Through: 12/31,           !- Field 1
    For: AllDays,             !- Field 2
    Until: 01:00,             !- Field 3
    1.0,                      !- Field 4
    Until: 05:00,             !- Field 5
    0.0,                      !- Field 6
    Until: 24:00,             !- Field 7
    1.0;                      !- Field 8

Schedule:Compact,
    WORK_EFF_SCH,             !- Name
    Fraction,                 !- Schedule Type Limits Name
    Through: 12/31,           !- Field 1
    For: AllDays,             !- Field 2
    Until: 24:00,             !- Field 3
    0.0;                      !- Field 4

Schedule:Compact,
    CLOTHING_SCH,             !- Name
    Any Number,               !- Schedule Type Limits Name
    Through: 04/30,           !- Field 1
    For: AllDays,             !- Field 2
    Until: 24:00,             !- Field 3
    1.0,                      !- Field 4
    Through: 09/30,           !- Field 5
    For: AllDays,             !- Field 6
    Until: 24:00,             !- Field 7
    0.5,                      !- Field 8
    Through: 12/31,           !- Field 9
    For: AllDays,             !- Field 10
    Until: 24:00,             !- Field 11
    1.0;                      !- Field 12

Schedule:Compact,
    Dual Zone Control Type Sched,    !- Name
    Control Type,             !- Schedule Type Limits Name
    Through: 12/31,           !- Field 1
    For: AllDays,             !- Field 2
    Until: 24:00,             !- Field 3
    4;                        !- Field 4

Schedule:Compact,
    CLGSETP_KITCHEN_SCH,      !- Name
    Temperature,              !- Schedule Type Limits Name
    Through: 12/31,           !- Field 1
    For: WinterDesignDay,     !- Field 2
    Until: 24:00,             !- Field 3
    30,                       !- Field 4
    For: AllOtherDays,        !- Field 5
    Until: 01:00,             !- Field 6
    26,                       !- Field 7
    Until: 05:00,             !- Field 8
    30,                       !- Field 9
    Until: 24:00,             !- Field 10
    26;                       !- Field 11

Schedule:Compact,
    HTGSETP_KITCHEN_SCH,      !- Name
    Temperature,              !- Schedule Type Limits Name
    Through: 12/31,           !- Field 1
    For: SummerDesignDay,     !- Field 2
    Until: 24:00,             !- Field 3
    15.6,                     !- Field 4
    For: WinterDesignDay,     !- Field 5
    Until: 24:00,             !- Field 6
    19,                       !- Field 7
    For: AllOtherDays,        !- Field 8
    Until: 01:00,             !- Field 9
    19,                       !- Field 10
    Until: 05:00,             !- Field 11
    15.6,                     !- Field 12
    Until: 24:00,             !- Field 13
    19;                       !- Field 14

Schedule:Compact,
    CLGSETP_SCH,              !- Name
    Temperature,              !- Schedule Type Limits Name
    Through: 12/31,           !- Field 1
    For: WinterDesignDay,     !- Field 2
    Until: 24:00,             !- Field 3
    30,                       !- Field 4
    For: AllOtherDays,        !- Field 5
    Until: 01:00,             !- Field 6
    24,                       !- Field 7
    Until: 05:00,             !- Field 8
    30,                       !- Field 9
    Until: 24:00,             !- Field 10
    24;                       !- Field 11

Schedule:Compact,
    HTGSETP_SCH,              !- Name
    Temperature,              !- Schedule Type Limits Name
    Through: 12/31,           !- Field 1
    For: SummerDesignDay,     !- Field 2
    Until: 24:00,             !- Field 3
    15.6,                     !- Field 4
    For: WinterDesignDay,     !- Field 5
    Until: 24:00,             !- Field 6
    21,                       !- Field 7
    For: AllOtherDays,        !- Field 8
    Until: 01:00,             !- Field 9
    21,                       !- Field 10
    Until: 05:00,             !- Field 11
    15.6,                     !- Field 12
    Until: 24:00,             !- Field 13
    21;                       !- Field 14

Schedule:Compact,
    HVACOperationSchd,        !- Name
    On/Off,                   !- Schedule Type Limits Name
    Through: 12/31,           !- Field 1
    For: AllDays,             !- Field 2
    Until: 01:00,             !- Field 3
    1.0,                      !- Field 4
    Until: 05:00,             !- Field 5
    0.0,                      !- Field 6
    Until: 24:00,             !- Field 7
    1.0;                      !- Field 8

Schedule:Compact,
    MinOA_Sched,              !- Name
    Fraction,                 !- Schedule Type Limits Name
    Through: 12/31,           !- Field 1
    For: AllDays,             !- Field 2
    Until: 01:00,             !- Field 3
    1.0,                      !- Field 4
    Until: 05:00,             !- Field 5
    0.0,                      !- Field 6
    Until: 24:00,             !- Field 7
    1.0;                      !- Field 8

Schedule:Compact,
    Kitchen_Case:1_WALKINFREEZER_CaseCreditReduxSched,    !- Name
    Fraction,                 !- Schedule Type Limits Name
    Through: 12/31,           !- Field 1
    For:AllDays,              !- Field 2
    Interpolate:No,           !- Field 3
    Until: 7:00,              !- Field 4
    0.2,                      !- Field 5
    Until: 21:00,             !- Field 6
    0.4,                      !- Field 7
    Until: 24:00,             !- Field 8
    0.2;                      !- Field 9

Schedule:Compact,
    Kitchen_Case:1_WALKINFREEZER_CaseDefrost2aDaySched,    !- Name
    On/Off,                   !- Schedule Type Limits Name
    Through: 12/31,           !- Field 1
    For:AllDays,              !- Field 2
    Interpolate:Average,      !- Field 3
    Until: 11:00,             !- Field 4
    0,                        !- Field 5
    Until: 11:20,             !- Field 6
    1,                        !- Field 7
    Until: 23:00,             !- Field 8
    0,                        !- Field 9
    Until: 23:20,             !- Field 10
    1,                        !- Field 11
    Until: 24:00,             !- Field 12
    0;                        !- Field 13

Schedule:Compact,
    Kitchen_Case:1_WALKINFREEZER_CaseDripDown2aDaySched,    !- Name
    On/Off,                   !- Schedule Type Limits Name
    Through: 12/31,           !- Field 1
    For:AllDays,              !- Field 2
    Interpolate:Average,      !- Field 3
    Until: 11:00,             !- Field 4
    0,                        !- Field 5
    Until: 11:30,             !- Field 6
    1,                        !- Field 7
    Until: 23:00,             !- Field 8
    0,                        !- Field 9
    Until: 23:30,             !- Field 10
    1,                        !- Field 11
    Until: 24:00,             !- Field 12
    0;                        !- Field 13

Schedule:Compact,
    Kitchen_Case:1_WALKINFREEZER_WalkInStockingSched,    !- Name
    Any Number,               !- Schedule Type Limits Name
    Through: 12/31,           !- Field 1
    For: Tuesday Friday,      !- Field 2
    Until: 4:00,              !- Field 3
    0.0,                      !- Field 4
    Until: 5:00,              !- Field 5
    725.0,                    !- Field 6
    Until: 6:00,              !- Field 7
    417.0,                    !- Field 8
    Until: 7:00,              !- Field 9
    290.0,                    !- Field 10
    Until: 24:00,             !- Field 11
    0.0,                      !- Field 12
    For: AllOtherDays,        !- Field 13
    Until: 4:00,              !- Field 14
    0.0,                      !- Field 15
    Until: 5:00,              !- Field 16
    125.0,                    !- Field 17
    Until: 6:00,              !- Field 18
    117.0,                    !- Field 19
    Until: 7:00,              !- Field 20
    90.0,                     !- Field 21
    Until: 19:00,             !- Field 22
    0.0,                      !- Field 23
    Until: 20:00,             !- Field 24
    125.0,                    !- Field 25
    Until: 21:00,             !- Field 26
    117.0,                    !- Field 27
    Until: 22:00,             !- Field 28
    90.0,                     !- Field 29
    Until: 24:00,             !- Field 30
    0.0;                      !- Field 31

Schedule:Compact,
    Kitchen_Case:2_SELFCONTAINEDDISPLAYCASE_CaseStockingSched,    !- Name
    Any Number,               !- Schedule Type Limits Name
    Through: 12/31,           !- Field 1
    For:AllDays,              !- Field 2
    Until: 6:00,              !- Field 3
    0.0,                      !- Field 4
    Until: 7:00,              !- Field 5
    50.0,                     !- Field 6
    Until: 9:00,              !- Field 7
    70.0,                     !- Field 8
    Until: 10:00,             !- Field 9
    80.0,                     !- Field 10
    Until: 11:00,             !- Field 11
    70.0,                     !- Field 12
    Until: 13:00,             !- Field 13
    50.0,                     !- Field 14
    Until: 14:00,             !- Field 15
    80.0,                     !- Field 16
    Until: 15:00,             !- Field 17
    90.0,                     !- Field 18
    Until: 16:00,             !- Field 19
    80.0,                     !- Field 20
    Until: 24:00,             !- Field 21
    0.0;                      !- Field 22

Schedule:Compact,
    BLDG_SWH_SCH,             !- Name
    Fraction,                 !- Schedule Type Limits Name
    Through: 12/31,           !- Field 1
    For: Weekdays SummerDesignDay,    !- Field 2
    Until: 01:00,             !- Field 3
    0.2,                      !- Field 4
    Until: 06:00,             !- Field 5
    0.0,                      !- Field 6
    Until: 07:00,             !- Field 7
    0.15,                     !- Field 8