!- Windows Line endings 

Version,
    9.2;                      !- Version Identifier

SimulationControl,
    YES,                      !- Do Zone Sizing Calculation
    YES,                      !- Do System Sizing Calculation
    YES,                      !- Do Plant Sizing Calculation
    NO,                       !- Run Simulation for Sizing Periods
    YES;                      !- Run Simulation for Weather File Run Periods

Building,
    Ref Bldg Hospital Post1980_v1.3_5.0,    !- Name
    0,                        !- North Axis
    City,                     !- Terrain
    0.04,                     !- Loads Convergence Tolerance Value
    0.2,                      !- Temperature Convergence Tolerance Value
    FullInteriorAndExterior,    !- Solar Distribution
    25,                       !- Maximum Number of Warmup Days
    6;                        !- Minimum Number of Warmup Days

ShadowCalculation,
    AverageOverDaysInFrequency,    !- Calculation Method
    7,                        !- Calculation Frequency
    15000;                    !- Maximum Figures in Shadow Overlap Calculations

SurfaceConvectionAlgorithm:Inside,
    TARP;                     !- Algorithm

SurfaceConvectionAlgorithm:Outside,
    DOE-2;                    !- Algorithm

HeatBalanceAlgorithm,
    ConductionTransferFunction,    !- Algorithm
    200;                      !- Surface Temperature Upper Limit

ZoneAirHeatBalanceAlgorithm,
    AnalyticalSolution;       !- Algorithm

Timestep,
    4;                        !- Number of Timesteps per Hour

ConvergenceLimits,
    2,                        !- Minimum System Timestep
    25;                       !- Maximum HVAC Iterations

Site:Location,
    USA IL-CHICAGO-OHARE,     !- Name
    41.77,                    !- Latitude
    -87.75,                   !- Longitude
    -6,                       !- Time Zone
    190;                      !- Elevation

SizingPeriod:DesignDay,
    CHICAGO Ann Htg 99.6% Condns DB,    !- Name
    1,                        !- Month
    21,                       !- Day of Month
    WinterDesignDay,          !- Day Type
    -20.6,                    !- Maximum DryBulb Temperature
    0,                        !- Daily DryBulb Temperature Range
    ,                         !- DryBulb Temperature Range Modifier Type
    ,                         !- DryBulb Temperature Range Modifier Day Schedule Name
    Wetbulb,                  !- Humidity Condition Type
    -20.6,                    !- Wetbulb or DewPoint at Maximum DryBulb
    ,                         !- Humidity Condition Day Schedule Name
    ,                         !- Humidity Ratio at Maximum DryBulb
    ,                         !- Enthalpy at Maximum DryBulb
    ,                         !- Daily WetBulb Temperature Range
    99063,                    !- Barometric Pressure
    4.9,                      !- Wind Speed
    270,                      !- Wind Direction
    No,                       !- Rain Indicator
    No,                       !- Snow Indicator
    No,                       !- Daylight Saving Time Indicator
    ASHRAEClearSky,           !- Solar Model Indicator
    ,                         !- Beam Solar Day Schedule Name
    ,                         !- Diffuse Solar Day Schedule Name
    ,                         !- ASHRAE Clear Sky Optical Depth for Beam Irradiance taub
    ,                         !- ASHRAE Clear Sky Optical Depth for Diffuse Irradiance taud
    0;                        !- Sky Clearness

SizingPeriod:DesignDay,
    CHICAGO Ann Clg .4% Condns WB=>MDB,    !- Name
    7,                        !- Month
    21,                       !- Day of Month
    SummerDesignDay,          !- Day Type
    31.2,                     !- Maximum DryBulb Temperature
    10.7,                     !- Daily DryBulb Temperature Range
    ,                         !- DryBulb Temperature Range Modifier Type
    ,                         !- DryBulb Temperature Range Modifier Day Schedule Name
    Wetbulb,                  !- Humidity Condition Type
    25.5,                     !- Wetbulb or DewPoint at Maximum DryBulb
    ,                         !- Humidity Condition Day Schedule Name
    ,                         !- Humidity Ratio at Maximum DryBulb
    ,                         !- Enthalpy at Maximum DryBulb
    ,                         !- Daily WetBulb Temperature Range
    99063,                    !- Barometric Pressure
    5.3,                      !- Wind Speed
    230,                      !- Wind Direction
    No,                       !- Rain Indicator
    No,                       !- Snow Indicator
    No,                       !- Daylight Saving Time Indicator
    ASHRAEClearSky,           !- Solar Model Indicator
    ,                         !- Beam Solar Day Schedule Name
    ,                         !- Diffuse Solar Day Schedule Name
    ,                         !- ASHRAE Clear Sky Optical Depth for Beam Irradiance taub
    ,                         !- ASHRAE Clear Sky Optical Depth for Diffuse Irradiance taud
    1;                        !- Sky Clearness

RunPeriod,
    RUNPERIOD 1,              !- Name
    1,                        !- Begin Month
    1,                        !- Begin Day of Month
    ,                         !- Begin Year
    12,                       !- End Month
    31,                       !- End Day of Month
    ,                         !- End Year
    Sunday,                   !- Day of Week for Start Day
    No,                       !- Use Weather File Holidays and Special Days
    No,                       !- Use Weather File Daylight Saving Period
    No,                       !- Apply Weekend Holiday Rule
    Yes,                      !- Use Weather File Rain Indicators
    Yes,                      !- Use Weather File Snow Indicators
    ;                         !- Treat Weather as Actual

RunPeriodControl:SpecialDays,
    New Years Day,            !- Name
    January 1,                !- Start Date
    1,                        !- Duration
    Holiday;                  !- Special Day Type

RunPeriodControl:SpecialDays,
    Veterans Day,             !- Name
    November 11,              !- Start Date
    1,                        !- Duration
    Holiday;                  !- Special Day Type

RunPeriodControl:SpecialDays,
    Christmas,                !- Name
    December 25,              !- Start Date
    1,                        !- Duration
    Holiday;                  !- Special Day Type

RunPeriodControl:SpecialDays,
    Independence Day,         !- Name
    July 4,                   !- Start Date
    1,                        !- Duration
    Holiday;                  !- Special Day Type

RunPeriodControl:SpecialDays,
    MLK Day,                  !- Name
    3rd Monday in January,    !- Start Date
    1,                        !- Duration
    Holiday;                  !- Special Day Type

RunPeriodControl:SpecialDays,
    Presidents Day,           !- Name
    3rd Monday in February,    !- Start Date
    1,                        !- Duration
    Holiday;                  !- Special Day Type

RunPeriodControl:SpecialDays,
    Memorial Day,             !- Name
    Last Monday in May,       !- Start Date
    1,                        !- Duration
    Holiday;                  !- Special Day Type

RunPeriodControl:SpecialDays,
    Labor Day,                !- Name
    1st Monday in September,    !- Start Date
    1,                        !- Duration
    Holiday;                  !- Special Day Type

RunPeriodControl:SpecialDays,
    Columbus Day,             !- Name
    2nd Monday in October,    !- Start Date
    1,                        !- Duration
    Holiday;                  !- Special Day Type

RunPeriodControl:SpecialDays,
    Thanksgiving,             !- Name
    4th Thursday in November,    !- Start Date
    1,                        !- Duration
    Holiday;                  !- Special Day Type

RunPeriodControl:DaylightSavingTime,
    2nd Sunday in March,      !- Start Date
    1st Sunday in November;    !- End Date

Site:GroundTemperature:BuildingSurface,
    19.527,                   !- January Ground Temperature
    19.502,                   !- February Ground Temperature
    19.536,                   !- March Ground Temperature
    19.598,                   !- April Ground Temperature
    20.002,                   !- May Ground Temperature
    21.64,                    !- June Ground Temperature
    22.225,                   !- July Ground Temperature
    22.375,                   !- August Ground Temperature
    21.449,                   !- September Ground Temperature
    20.121,                   !- October Ground Temperature
    19.802,                   !- November Ground Temperature
    19.633;                   !- December Ground Temperature

Site:WaterMainsTemperature,
    CORRELATION,              !- Calculation Method
    ,                         !- Temperature Schedule Name
    9.69,                     !- Annual Average Outdoor Air Temperature
    28.1;                     !- Maximum Difference In Monthly Average Outdoor Air Temperatures

ScheduleTypeLimits,
    Any Number;               !- Name

ScheduleTypeLimits,
    Fraction,                 !- Name
    0.0,                      !- Lower Limit Value
    1.0,                      !- Upper Limit Value
    CONTINUOUS;               !- Numeric Type

ScheduleTypeLimits,
    Temperature,              !- Name
    -60,                      !- Lower Limit Value
    200,                      !- Upper Limit Value
    CONTINUOUS;               !- Numeric Type

ScheduleTypeLimits,
    On/Off,                   !- Name
    0,                        !- Lower Limit Value
    1,                        !- Upper Limit Value
    DISCRETE;                 !- Numeric Type

ScheduleTypeLimits,
    Control Type,             !- Name
    0,                        !- Lower Limit Value
    4,                        !- Upper Limit Value
    DISCRETE;                 !- Numeric Type

ScheduleTypeLimits,
    Humidity,                 !- Name
    10,                       !- Lower Limit Value
    90,                       !- Upper Limit Value
    CONTINUOUS;               !- Numeric Type

ScheduleTypeLimits,
    Number;                   !- Name

Schedule:Compact,
    ALWAYS_ON,                !- Name
    On/Off,                   !- Schedule Type Limits Name
    Through: 12/31,           !- Field 1
    For: AllDays,             !- Field 2
    Until: 24:00,             !- Field 3
    1;                        !- Field 4

Schedule:Compact,
    Kitchen_Exhaust_SCH,      !- Name
    Fraction,                 !- Schedule Type Limits Name
    Through: 12/31,           !- Field 1
    For: Weekdays,            !- Field 2
    Until: 05:00,             !- Field 3
    0,                        !- Field 4
    Until: 18:00,             !- Field 5
    1,                        !- Field 6
    Until: 24:00,             !- Field 7
    0,                        !- Field 8
    For: SummerDesignDay,     !- Field 9
    Until: 05:00,             !- Field 10
    0,                        !- Field 11
    Until: 18:00,             !- Field 12
    1,                        !- Field 13
    Until: 24:00,             !- Field 14
    0,                        !- Field 15
    For: WinterDesignDay,     !- Field 16
    Until: 07:00,             !- Field 17
    0,                        !- Field 18
    Until: 15:00,             !- Field 19
    1,                        !- Field 20
    Until: 24:00,             !- Field 21
    0,                        !- Field 22
    For: Saturdays,           !- Field 23
    Until: 07:00,             !- Field 24
    0,                        !- Field 25
    Until: 15:00,             !- Field 26
    1,                        !- Field 27
    Until: 24:00,             !- Field 28
    0,                        !- Field 29
    For: AllOtherDays,        !- Field 30
    Until: 24:00,             !- Field 31
    0;                        !- Field 32

Schedule:Compact,
    ADMIN_EQUIP_SCH,          !- Name
    Fraction,                 !- Schedule Type Limits Name
    Through: 12/31,           !- Field 1
    For: Weekdays,            !- Field 2
    Until: 04:00,             !- Field 3
    0.30,                     !- Field 4
    Until: 06:00,             !- Field 5
    0.50,                     !- Field 6
    Until: 18:00,             !- Field 7
    1.00,                     !- Field 8
    Until: 20:00,             !- Field 9
    0.50,                     !- Field 10
    Until: 24:00,             !- Field 11
    0.30,                     !- Field 12
    For: SummerDesignDay,     !- Field 13
    Until: 04:00,             !- Field 14
    0.30,                     !- Field 15
    Until: 06:00,             !- Field 16
    0.50,                     !- Field 17
    Until: 18:00,             !- Field 18
    1.00,                     !- Field 19
    Until: 20:00,             !- Field 20
    0.50,                     !- Field 21
    Until: 24:00,             !- Field 22
    0.30,                     !- Field 23
    For: WinterDesignDay,     !- Field 24
    Until: 24:00,             !- Field 25
    0.30,                     !- Field 26
    For: Saturday,            !- Field 27
    Until: 07:00,             !- Field 28
    0.30,                     !- Field 29
    Until: 09:00,             !- Field 30
    0.50,                     !- Field 31
    Until: 15:00,             !- Field 32
    0.80,                     !- Field 33
    Until: 20:00,             !- Field 34
    0.50,                     !- Field 35
    Until: 24:00,             !- Field 36
    0.30,                     !- Field 37
    For: AllOtherDays,        !- Field 38
    Until: 08:00,             !- Field 39
    0.30,                     !- Field 40
    Until: 17:00,             !- Field 41
    0.50,                     !- Field 42
    Until: 24:00,             !- Field 43
    0.30;                     !- Field 44

Schedule:Compact,
    ADMIN_LIGHT_SCH,          !- Name
    Fraction,                 !- Schedule Type Limits Name
    Through: 12/31,           !- Field 1
    For: Weekdays,            !- Field 2
    Until: 04:00,             !- Field 3
    0.10,                     !- Field 4
    Until: 06:00,             !- Field 5
    0.30,                     !- Field 6
    Until: 07:00,             !- Field 7
    0.60,                     !- Field 8
    Until: 18:00,             !- Field 9
    0.90,                     !- Field 10
    Until: 20:00,             !- Field 11
    0.60,                     !- Field 12
    Until: 22:00,             !- Field 13
    0.30,                     !- Field 14
    Until: 24:00,             !- Field 15
    0.10,                     !- Field 16
    For: SummerDesignDay,     !- Field 17
    Until: 04:00,             !- Field 18
    0.10,                     !- Field 19
    Until: 06:00,             !- Field 20
    0.30,                     !- Field 21
    Until: 07:00,             !- Field 22
    0.60,                     !- Field 23
    Until: 18:00,             !- Field 24
    0.90,                     !- Field 25
    Until: 20:00,             !- Field 26
    0.60,                     !- Field 27
    Until: 22:00,             !- Field 28
    0.30,                     !- Field 29
    Until: 24:00,             !- Field 30
    0.10,                     !- Field 31
    For: WinterDesignDay,     !- Field 32
    Until: 07:00,             !- Field 33
    0.10,                     !- Field 34
    Until: 09:00,             !- Field 35
    0.30,                     !- Field 36
    Until: 15:00,             !- Field 37
    0.40,                     !- Field 38
    Until: 20:00,             !- Field 39
    0.30,                     !- Field 40
    Until: 24:00,             !- Field 41
    0.10,                     !- Field 42
    For: Saturday,            !- Field 43
    Until: 07:00,             !- Field 44
    0.10,                     !- Field 45
    Until: 09:00,             !- Field 46
    0.30,                     !- Field 47
    Until: 15:00,             !- Field 48
    0.40,                     !- Field 49
    Until: 20:00,             !- Field 50
    0.30,                     !- Field 51
    Until: 24:00,             !- Field 52
    0.10,                     !- Field 53
    For: AllOtherDays,        !- Field 54
    Until: 08:00,             !- Field 55
    0.05,                     !- Field 56
    Until: 17:00,             !- Field 57
    0.10,                     !- Field 58
    Until: 24:00,             !- Field 59
    0.05;                     !- Field 60

Schedule:Compact,
    ADMIN_OCC_SCH,            !- Name
    Fraction,                 !- Schedule Type Limits Name
    Through: 12/31,           !- Field 1
    For: Weekdays,            !- Field 2
    Until: 04:00,             !- Field 3
    0.05,                     !- Field 4
    Until: 06:00,             !- Field 5
    0.20,                     !- Field 6
    Until: 07:00,             !- Field 7
    0.50,                     !- Field 8
    Until: 18:00,             !- Field 9
    0.90,                     !- Field 10
    Until: 20:00,             !- Field 11
    0.50,                     !- Field 12
    Until: 22:00,             !- Field 13
    0.20,                     !- Field 14
    Until: 24:00,             !- Field 15
    0.05,                     !- Field 16
    For: SummerDesignDay,     !- Field 17
    Until: 04:00,             !- Field 18
    0.05,                     !- Field 19
    Until: 06:00,             !- Field 20
    0.20,                     !- Field 21
    Until: 07:00,             !- Field 22
    0.50,                     !- Field 23
    Until: 18:00,             !- Field 24
    0.90,                     !- Field 25
    Until: 20:00,             !- Field 26
    0.50,                     !- Field 27
    Until: 22:00,             !- Field 28
    0.20,                     !- Field 29
    Until: 24:00,             !- Field 30
    0.05,                     !- Field 31
    For: WinterDesignDay,     !- Field 32
    Until: 07:00,             !- Field 33
    0.05,                     !- Field 34
    Until: 09:00,             !- Field 35
    0.20,                     !- Field 36
    Until: 15:00,             !- Field 37
    0.30,                     !- Field 38
    Until: 20:00,             !- Field 39
    0.20,                     !- Field 40
    Until: 24:00,             !- Field 41
    0.05,                     !- Field 42
    For: Saturday,            !- Field 43
    Until: 07:00,             !- Field 44
    0.05,                     !- Field 45
    Until: 09:00,             !- Field 46
    0.20,                     !- Field 47
    Until: 15:00,             !- Field 48
    0.30,                     !- Field 49
    Until: 20:00,             !- Field 50
    0.20,                     !- Field 51
    Until: 24:00,             !- Field 52
    0.05,                     !- Field 53
    For: Sunday Holidays AllOtherDays,    !- Field 54
    Until: 08:00,             !- Field 55
    0.00,                     !- Field 56
    Until: 17:00,             !- Field 57
    0.05,                     !- Field 58
    Until: 24:00,             !- Field 59
    0.00;                     !- Field 60

Schedule:Compact,
    BLDG_ELEVATORS,           !- Name
    Fraction,                 !- Schedule Type Limits Name
    Through: 12/31,           !- Field 1
    For: Weekdays SummerDesignDay,    !- Field 2
    Until: 07:00,             !- Field 3
    0.2,                      !- Field 4
    Until: 08:00,             !- Field 5
    0.5,                      !- Field 6
    Until: 09:00,             !- Field 7
    0.75,                     !- Field 8
    Until: 10:00,             !- Field 9
    1.00,                     !- Field 10
    Until: 11:00,             !- Field 11
    1.00,                     !- Field 12
    Until: 12:00,             !- Field 13
    1.00,                     !- Field 14
    Until: 13:00,             !- Field 15
    0.75,                     !- Field 16
    Until: 14:00,             !- Field 17
    1.00,                     !- Field 18
    Until: 15:00,             !- Field 19
    1.00,                     !- Field 20
    Until: 16:00,             !- Field 21
    1.00,                     !- Field 22
    Until: 17:00,             !- Field 23
    1.00,                     !- Field 24
    Until: 18:00,             !- Field 25
    1.00,                     !- Field 26
    Until: 19:00,             !- Field 27
    0.52,                     !- Field 28
    Until: 20:00,             !- Field 29
    0.52,                     !- Field 30
    Until: 21:00,             !- Field 31
    0.52,                     !- Field 32
    Until: 22:00,             !- Field 33
    0.28,                     !- Field 34
    Until: 24:00,             !- Field 35
    0.2,                      !- Field 36
    For: Saturday WinterDesignDay,    !- Field 37
    Until: 07:00,             !- Field 38
    0.2,                      !- Field 39
    Until: 08:00,             !- Field 40
    0.4,                      !- Field 41
    Until: 09:00,             !- Field 42
    0.46,                     !- Field 43
    Until: 10:00,             !- Field 44
    0.70,                     !- Field 45
    Until: 11:00,             !- Field 46
    0.70,                     !- Field 47
    Until: 12:00,             !- Field 48
    0.70,                     !- Field 49
    Until: 13:00,             !- Field 50
    0.51,                     !- Field 51
    Until: 14:00,             !- Field 52
    0.51,                     !- Field 53
    Until: 15:00,             !- Field 54
    0.51,                     !- Field 55
    Until: 16:00,             !- Field 56
    0.51,                     !- Field 57
    Until: 17:00,             !- Field 58
    0.51,                     !- Field 59
    Until: 18:00,             !- Field 60
    0.25,                     !- Field 61
    Until: 24:00,             !- Field 62
    0.2,                      !- Field 63
    For: AllOtherDays,        !- Field 64
    Until: 08:00,             !- Field 65
    0.2,                      !- Field 66
    Until: 16:00,             !- Field 67
    0.4,                      !- Field 68
    Until: 24:00,             !- Field 69
    0.2;                      !- Field 70

Schedule:Compact,
    BLDG_LIGHT_SCH,           !- Name
    Fraction,                 !- Schedule Type Limits Name
    Through: 12/31,           !- Field 1
    For: Weekdays,            !- Field 2
    Until: 07:00,             !- Field 3
    0.1,                      !- Field 4
    Until: 08:00,             !- Field 5
    0.5,                      !- Field 6
    Until: 16:00,             !- Field 7
    0.9,                      !- Field 8
    Until: 23:00,             !- Field 9
    0.3,                      !- Field 10
    Until: 24:00,             !- Field 11
    0.1,                      !- Field 12
    For: SummerDesignDay,     !- Field 13
    Until: 24:00,             !- Field 14
    1.0,                      !- Field 15
    For: WinterDesignDay,     !- Field 16
    Until: 24:00,             !- Field 17
    0.0,                      !- Field 18
    For: Saturday,            !- Field 19
    Until: 07:00,             !- Field 20
    0.1,                      !- Field 21
    Until: 08:00,             !- Field 22
    0.2,                      !- Field 23
    Until: 18:00,             !- Field 24
    0.4,                      !- Field 25
    Until: 24:00,             !- Field 26
    0.1,                      !- Field 27
    For: AllOtherDays,        !- Field 28
    Until: 08:00,             !- Field 29
    0.05,                     !- Field 30
    Until: 16:00,             !- Field 31
    0.1,                      !- Field 32
    Until: 24:00,             !- Field 33
    0.05;                     !- Field 34

Schedule:Compact,
    CRITICAL_EQUIP_SCH,       !- Name
    Fraction,                 !- Schedule Type Limits Name
    Through: 12/31,           !- Field 1
    For: Weekdays,            !- Field 2
    Until: 04:00,             !- Field 3
    0.50,                     !- Field 4
    Until: 06:00,             !- Field 5
    0.50,                     !- Field 6
    Until: 18:00,             !- Field 7
    1.00,                     !- Field 8
    Until: 20:00,             !- Field 9
    0.80,                     !- Field 10
    Until: 24:00,             !- Field 11
    0.50,                     !- Field 12
    For: SummerDesignDay,     !- Field 13
    Until: 04:00,             !- Field 14
    0.50,                     !- Field 15
    Until: 06:00,             !- Field 16
    0.50,                     !- Field 17
    Until: 18:00,             !- Field 18
    1.00,                     !- Field 19
    Until: 20:00,             !- Field 20
    0.80,                     !- Field 21
    Until: 24:00,             !- Field 22
    0.50,                     !- Field 23
    For: WinterDesignDay,     !- Field 24
    Until: 24:00,             !- Field 25
    0.30,                     !- Field 26
    For: Saturday,            !- Field 27
    Until: 04:00,             !- Field 28
    0.50,                     !- Field 29
    Until: 06:00,             !- Field 30
    0.50,                     !- Field 31
    Until: 18:00,             !- Field 32
    1.00,                     !- Field 33
    Until: 20:00,             !- Field 34
    0.80,                     !- Field 35
    Until: 24:00,             !- Field 36
    0.50,                     !- Field 37
    For: Sunday Holidays AllOtherDays,    !- Field 38
    Until: 04:00,             !- Field 39
    0.50,                     !- Field 40
    Until: 06:00,             !- Field 41
    0.50,                     !- Field 42
    Until: 18:00,             !- Field 43
    1.00,                     !- Field 44
    Until: 20:00,             !- Field 45
    0.80,                     !- Field 46
    Until: 24:00,             !- Field 47
    0.50;                     !- Field 48

Schedule:Compact,
    CRITICAL_LIGHT_SCH,       !- Name
    Fraction,                 !- Schedule Type Limits Name
    Through: 12/31,           !- Field 1
    For: Weekdays,            !- Field 2
    Until: 04:00,             !- Field 3
    0.50,                     !- Field 4
    Until: 06:00,             !- Field 5
    0.70,                     !- Field 6
    Until: 18:00,             !- Field 7
    0.90,                     !- Field 8
    Until: 22:00,             !- Field 9
    0.70,                     !- Field 10
    Until: 24:00,             !- Field 11
    0.50,                     !- Field 12
    For: SummerDesignDay,     !- Field 13
    Until: 04:00,             !- Field 14
    0.50,                     !- Field 15
    Until: 06:00,             !- Field 16
    0.70,                     !- Field 17
    Until: 18:00,             !- Field 18
    0.90,                     !- Field 19
    Until: 22:00,             !- Field 20
    0.70,                     !- Field 21
    Until: 24:00,             !- Field 22
    0.50,                     !- Field 23
    For: WinterDesignDay,     !- Field 24
    Until: 04:00,             !- Field 25
    0.50,                     !- Field 26
    Until: 06:00,             !- Field 27
    0.70,                     !- Field 28
    Until: 18:00,             !- Field 29
    0.90,                     !- Field 30
    Until: 22:00,             !- Field 31
    0.70,                     !- Field 32
    Until: 24:00,             !- Field 33
    0.50,                     !- Field 34
    For: Saturday,            !- Field 35
    Until: 04:00,             !- Field 36
    0.50,                     !- Field 37
    Until: 06:00,             !- Field 38
    0.70,                     !- Field 39
    Until: 18:00,             !- Field 40
    0.90,                     !- Field 41
    Until: 22:00,             !- Field 42
    0.70,                     !- Field 43
    Until: 24:00,             !- Field 44
    0.50,                     !- Field 45
    For: AllOtherDays,        !- Field 46
    Until: 04:00,             !- Field 47
    0.50,                     !- Field 48
    Until: 06:00,             !- Field 49
    0.70,                     !- Field 50
    Until: 18:00,             !- Field 51
    0.90,                     !- Field 52
    Until: 22:00,             !- Field 53
    0.70,                     !- Field 54
    Until: 24:00,             !- Field 55
    0.50;                     !- Field 56

Schedule:Compact,
    CRITICAL_OCC_SCH,         !- Name
    Fraction,                 !- Schedule Type Limits Name
    Through: 12/31,           !- Field 1
    For: Weekdays,            !- Field 2
    Until: 04:00,             !- Field 3
    0.40,                     !- Field 4
    Until: 06:00,             !- Field 5
    0.65,                     !- Field 6
    Until: 18:00,             !- Field 7
    0.90,                     !- Field 8
    Until: 22:00,             !- Field 9
    0.65,                     !- Field 10
    Until: 24:00,             !- Field 11
    0.40,                     !- Field 12
    For: SummerDesignDay,     !- Field 13
    Until: 04:00,             !- Field 14
    0.40,                     !- Field 15
    Until: 06:00,             !- Field 16
    0.65,                     !- Field 17
    Until: 18:00,             !- Field 18
    0.90,                     !- Field 19
    Until: 22:00,             !- Field 20
    0.65,                     !- Field 21
    Until: 24:00,             !- Field 22
    0.40,                     !- Field 23
    For: WinterDesignDay,     !- Field 24
    Until: 04:00,             !- Field 25
    0.40,                     !- Field 26
    Until: 06:00,             !- Field 27
    0.65,                     !- Field 28
    Until: 18:00,             !- Field 29
    0.90,                     !- Field 30
    Until: 22:00,             !- Field 31
    0.65,                     !- Field 32
    Until: 24:00,             !- Field 33
    0.40,                     !- Field 34
    For: Saturday,            !- Field 35