!- Windows Line endings 

Version,
    9.2;                      !- Version Identifier

SimulationControl,
    YES,                      !- Do Zone Sizing Calculation
    YES,                      !- Do System Sizing Calculation
    YES,                      !- Do Plant Sizing Calculation
    NO,                       !- Run Simulation for Sizing Periods
    YES;                      !- Run Simulation for Weather File Run Periods

Building,
    Ref Bldg Stand-alone Retail New2004_v1.3_5.0,    !- Name
    0,                        !- North Axis
    City,                     !- Terrain
    0.04,                     !- Loads Convergence Tolerance Value
    0.2,                      !- Temperature Convergence Tolerance Value
    FullInteriorAndExterior,    !- Solar Distribution
    25,                       !- Maximum Number of Warmup Days
    6;                        !- Minimum Number of Warmup Days

ShadowCalculation,
    AverageOverDaysInFrequency,    !- Calculation Method
    7,                        !- Calculation Frequency
    15000;                    !- Maximum Figures in Shadow Overlap Calculations

SurfaceConvectionAlgorithm:Inside,
    TARP;                     !- Algorithm

SurfaceConvectionAlgorithm:Outside,
    DOE-2;                    !- Algorithm

HeatBalanceAlgorithm,
    ConductionTransferFunction,    !- Algorithm
    200;                      !- Surface Temperature Upper Limit

ZoneAirHeatBalanceAlgorithm,
    AnalyticalSolution;       !- Algorithm

Timestep,
    6;                        !- Number of Timesteps per Hour

ConvergenceLimits,
    2,                        !- Minimum System Timestep
    25;                       !- Maximum HVAC Iterations

Site:Location,
    USA IL-CHICAGO-OHARE,     !- Name
    41.77,                    !- Latitude
    -87.75,                   !- Longitude
    -6,                       !- Time Zone
    190;                      !- Elevation

SizingPeriod:DesignDay,
    CHICAGO Ann Htg 99.6% Condns DB,    !- Name
    1,                        !- Month
    21,                       !- Day of Month
    WinterDesignDay,          !- Day Type
    -20.6,                    !- Maximum DryBulb Temperature
    0,                        !- Daily DryBulb Temperature Range
    ,                         !- DryBulb Temperature Range Modifier Type
    ,                         !- DryBulb Temperature Range Modifier Day Schedule Name
    Wetbulb,                  !- Humidity Condition Type
    -20.6,                    !- Wetbulb or DewPoint at Maximum DryBulb
    ,                         !- Humidity Condition Day Schedule Name
    ,                         !- Humidity Ratio at Maximum DryBulb
    ,                         !- Enthalpy at Maximum DryBulb
    ,                         !- Daily WetBulb Temperature Range
    99063,                    !- Barometric Pressure
    4.9,                      !- Wind Speed
    270,                      !- Wind Direction
    No,                       !- Rain Indicator
    No,                       !- Snow Indicator
    No,                       !- Daylight Saving Time Indicator
    ASHRAEClearSky,           !- Solar Model Indicator
    ,                         !- Beam Solar Day Schedule Name
    ,                         !- Diffuse Solar Day Schedule Name
    ,                         !- ASHRAE Clear Sky Optical Depth for Beam Irradiance taub
    ,                         !- ASHRAE Clear Sky Optical Depth for Diffuse Irradiance taud
    0;                        !- Sky Clearness

SizingPeriod:DesignDay,
    CHICAGO Ann Clg .4% Condns WB=>MDB,    !- Name
    7,                        !- Month
    21,                       !- Day of Month
    SummerDesignDay,          !- Day Type
    31.2,                     !- Maximum DryBulb Temperature
    10.7,                     !- Daily DryBulb Temperature Range
    ,                         !- DryBulb Temperature Range Modifier Type
    ,                         !- DryBulb Temperature Range Modifier Day Schedule Name
    Wetbulb,                  !- Humidity Condition Type
    25.5,                     !- Wetbulb or DewPoint at Maximum DryBulb
    ,                         !- Humidity Condition Day Schedule Name
    ,                         !- Humidity Ratio at Maximum DryBulb
    ,                         !- Enthalpy at Maximum DryBulb
    ,                         !- Daily WetBulb Temperature Range
    99063,                    !- Barometric Pressure
    5.3,                      !- Wind Speed
    230,                      !- Wind Direction
    No,                       !- Rain Indicator
    No,                       !- Snow Indicator
    No,                       !- Daylight Saving Time Indicator
    ASHRAEClearSky,           !- Solar Model Indicator
    ,                         !- Beam Solar Day Schedule Name
    ,                         !- Diffuse Solar Day Schedule Name
    ,                         !- ASHRAE Clear Sky Optical Depth for Beam Irradiance taub
    ,                         !- ASHRAE Clear Sky Optical Depth for Diffuse Irradiance taud
    1;                        !- Sky Clearness

RunPeriod,
    RunPeriod 1,              !- Name
    1,                        !- Begin Month
    1,                        !- Begin Day of Month
    ,                         !- Begin Year
    12,                       !- End Month
    31,                       !- End Day of Month
    ,                         !- End Year
    Monday,                   !- Day of Week for Start Day
    No,                       !- Use Weather File Holidays and Special Days
    No,                       !- Use Weather File Daylight Saving Period
    No,                       !- Apply Weekend Holiday Rule
    Yes,                      !- Use Weather File Rain Indicators
    Yes,                      !- Use Weather File Snow Indicators
    ;                         !- Treat Weather as Actual

RunPeriodControl:SpecialDays,
    New Years Day,            !- Name
    January 1,                !- Start Date
    1,                        !- Duration
    Holiday;                  !- Special Day Type

RunPeriodControl:SpecialDays,
    Veterans Day,             !- Name
    November 11,              !- Start Date
    1,                        !- Duration
    Holiday;                  !- Special Day Type

RunPeriodControl:SpecialDays,
    Christmas,                !- Name
    December 25,              !- Start Date
    1,                        !- Duration
    Holiday;                  !- Special Day Type

RunPeriodControl:SpecialDays,
    Independence Day,         !- Name
    July 4,                   !- Start Date
    1,                        !- Duration
    Holiday;                  !- Special Day Type

RunPeriodControl:SpecialDays,
    MLK Day,                  !- Name
    3rd Monday in January,    !- Start Date
    1,                        !- Duration
    Holiday;                  !- Special Day Type

RunPeriodControl:SpecialDays,
    Presidents Day,           !- Name
    3rd Monday in February,    !- Start Date
    1,                        !- Duration
    Holiday;                  !- Special Day Type

RunPeriodControl:SpecialDays,
    Memorial Day,             !- Name
    Last Monday in May,       !- Start Date
    1,                        !- Duration
    Holiday;                  !- Special Day Type

RunPeriodControl:SpecialDays,
    Labor Day,                !- Name
    1st Monday in September,    !- Start Date
    1,                        !- Duration
    Holiday;                  !- Special Day Type

RunPeriodControl:SpecialDays,
    Columbus Day,             !- Name
    2nd Monday in October,    !- Start Date
    1,                        !- Duration
    Holiday;                  !- Special Day Type

RunPeriodControl:SpecialDays,
    Thanksgiving,             !- Name
    4th Thursday in November,    !- Start Date
    1,                        !- Duration
    Holiday;                  !- Special Day Type

RunPeriodControl:DaylightSavingTime,
    2nd Sunday in March,      !- Start Date
    1st Sunday in November;    !- End Date

Site:GroundTemperature:BuildingSurface,
    19.527,                   !- January Ground Temperature
    19.502,                   !- February Ground Temperature
    19.536,                   !- March Ground Temperature
    19.598,                   !- April Ground Temperature
    20.002,                   !- May Ground Temperature
    21.64,                    !- June Ground Temperature
    22.225,                   !- July Ground Temperature
    22.375,                   !- August Ground Temperature
    21.449,                   !- September Ground Temperature
    20.121,                   !- October Ground Temperature
    19.802,                   !- November Ground Temperature
    19.633;                   !- December Ground Temperature

Site:WaterMainsTemperature,
    CORRELATION,              !- Calculation Method
    ,                         !- Temperature Schedule Name
    9.69,                     !- Annual Average Outdoor Air Temperature
    28.1;                     !- Maximum Difference In Monthly Average Outdoor Air Temperatures

ScheduleTypeLimits,
    Any Number;               !- Name

ScheduleTypeLimits,
    Fraction,                 !- Name
    0.0,                      !- Lower Limit Value
    1.0,                      !- Upper Limit Value
    CONTINUOUS;               !- Numeric Type

ScheduleTypeLimits,
    Temperature,              !- Name
    -60,                      !- Lower Limit Value
    200,                      !- Upper Limit Value
    CONTINUOUS;               !- Numeric Type

ScheduleTypeLimits,
    On/Off,                   !- Name
    0,                        !- Lower Limit Value
    1,                        !- Upper Limit Value
    DISCRETE;                 !- Numeric Type

ScheduleTypeLimits,
    Control Type,             !- Name
    0,                        !- Lower Limit Value
    4,                        !- Upper Limit Value
    DISCRETE;                 !- Numeric Type

ScheduleTypeLimits,
    Humidity,                 !- Name
    10,                       !- Lower Limit Value
    90,                       !- Upper Limit Value
    CONTINUOUS;               !- Numeric Type

ScheduleTypeLimits,
    Number;                   !- Name

Schedule:Compact,
    ALWAYS_ON,                !- Name
    On/Off,                   !- Schedule Type Limits Name
    Through: 12/31,           !- Field 1
    For: AllDays,             !- Field 2
    Until: 24:00,             !- Field 3
    1;                        !- Field 4

Schedule:Compact,
    BLDG_EQUIP_SCH,           !- Name
    Fraction,                 !- Schedule Type Limits Name
    Through: 12/31,           !- Field 1
    For: Weekdays,            !- Field 2
    Until: 07:00,             !- Field 3
    0.2,                      !- Field 4
    Until: 08:00,             !- Field 5
    0.4,                      !- Field 6
    Until: 09:00,             !- Field 7
    0.7,                      !- Field 8
    Until: 18:00,             !- Field 9
    0.9,                      !- Field 10
    Until: 20:00,             !- Field 11
    0.8,                      !- Field 12
    Until: 21:00,             !- Field 13
    0.7,                      !- Field 14
    Until: 22:00,             !- Field 15
    0.4,                      !- Field 16
    Until: 24:00,             !- Field 17
    0.2,                      !- Field 18
    For: Saturday,            !- Field 19
    Until: 07:00,             !- Field 20
    0.15,                     !- Field 21
    Until: 08:00,             !- Field 22
    0.3,                      !- Field 23
    Until: 09:00,             !- Field 24
    0.5,                      !- Field 25
    Until: 10:00,             !- Field 26
    0.8,                      !- Field 27
    Until: 18:00,             !- Field 28
    0.9,                      !- Field 29
    Until: 19:00,             !- Field 30
    0.7,                      !- Field 31
    Until: 21:00,             !- Field 32
    0.5,                      !- Field 33
    Until: 22:00,             !- Field 34
    0.3,                      !- Field 35
    Until: 24:00,             !- Field 36
    0.15,                     !- Field 37
    For: SummerDesignDay,     !- Field 38
    Until: 24:00,             !- Field 39
    1.0,                      !- Field 40
    For: WinterDesignDay,     !- Field 41
    Until: 24:00,             !- Field 42
    0.0,                      !- Field 43
    For: AllOtherDays,        !- Field 44
    Until: 08:00,             !- Field 45
    0.15,                     !- Field 46
    Until: 10:00,             !- Field 47
    0.3,                      !- Field 48
    Until: 12:00,             !- Field 49
    0.6,                      !- Field 50
    Until: 17:00,             !- Field 51
    0.8,                      !- Field 52
    Until: 18:00,             !- Field 53
    0.6,                      !- Field 54
    Until: 19:00,             !- Field 55
    0.4,                      !- Field 56
    Until: 24:00,             !- Field 57
    0.15;                     !- Field 58

Schedule:Compact,
    BLDG_LIGHT_SCH,           !- Name
    Fraction,                 !- Schedule Type Limits Name
    Through: 12/31,           !- Field 1
    For: Weekdays,            !- Field 2
    Until: 07:00,             !- Field 3
    0.05,                     !- Field 4
    Until: 08:00,             !- Field 5
    0.2,                      !- Field 6
    Until: 09:00,             !- Field 7
    0.5,                      !- Field 8
    Until: 18:00,             !- Field 9
    0.9,                      !- Field 10
    Until: 20:00,             !- Field 11
    0.6,                      !- Field 12
    Until: 21:00,             !- Field 13
    0.5,                      !- Field 14
    Until: 22:00,             !- Field 15
    0.2,                      !- Field 16
    Until: 24:00,             !- Field 17
    0.05,                     !- Field 18
    For: Saturday,            !- Field 19
    Until: 07:00,             !- Field 20
    0.05,                     !- Field 21
    Until: 08:00,             !- Field 22
    0.1,                      !- Field 23
    Until: 09:00,             !- Field 24
    0.3,                      !- Field 25
    Until: 10:00,             !- Field 26
    0.6,                      !- Field 27
    Until: 18:00,             !- Field 28
    0.9,                      !- Field 29
    Until: 19:00,             !- Field 30
    0.5,                      !- Field 31
    Until: 21:00,             !- Field 32
    0.3,                      !- Field 33
    Until: 22:00,             !- Field 34
    0.1,                      !- Field 35
    Until: 24:00,             !- Field 36
    0.05,                     !- Field 37
    For: SummerDesignDay,     !- Field 38
    Until: 24:00,             !- Field 39
    1.0,                      !- Field 40
    For: WinterDesignDay,     !- Field 41
    Until: 24:00,             !- Field 42
    0.0,                      !- Field 43
    For: AllOtherDays,        !- Field 44
    Until: 08:00,             !- Field 45
    0.05,                     !- Field 46
    Until: 10:00,             !- Field 47
    0.1,                      !- Field 48
    Until: 12:00,             !- Field 49
    0.4,                      !- Field 50
    Until: 17:00,             !- Field 51
    0.6,                      !- Field 52
    Until: 18:00,             !- Field 53
    0.4,                      !- Field 54
    Until: 19:00,             !- Field 55
    0.2,                      !- Field 56
    Until: 24:00,             !- Field 57
    0.05;                     !- Field 58

Schedule:Compact,
    BLDG_OCC_SCH,             !- Name
    Fraction,                 !- Schedule Type Limits Name
    Through: 12/31,           !- Field 1
    For: Weekdays,            !- Field 2
    Until: 07:00,             !- Field 3
    0.0,                      !- Field 4
    Until: 08:00,             !- Field 5
    0.1,                      !- Field 6
    Until: 09:00,             !- Field 7
    0.2,                      !- Field 8
    Until: 11:00,             !- Field 9
    0.5,                      !- Field 10
    Until: 15:00,             !- Field 11
    0.7,                      !- Field 12
    Until: 16:00,             !- Field 13
    0.8,                      !- Field 14
    Until: 17:00,             !- Field 15
    0.7,                      !- Field 16
    Until: 19:00,             !- Field 17
    0.5,                      !- Field 18
    Until: 21:00,             !- Field 19
    0.3,                      !- Field 20
    Until: 24:00,             !- Field 21
    0.0,                      !- Field 22
    For: SummerDesignDay WinterDesignDay,    !- Field 23
    Until: 24:00,             !- Field 24
    1.0,                      !- Field 25
    For: Saturday,            !- Field 26
    Until: 07:00,             !- Field 27
    0.0,                      !- Field 28
    Until: 08:00,             !- Field 29
    0.1,                      !- Field 30
    Until: 09:00,             !- Field 31
    0.2,                      !- Field 32
    Until: 10:00,             !- Field 33
    0.5,                      !- Field 34
    Until: 11:00,             !- Field 35
    0.6,                      !- Field 36
    Until: 17:00,             !- Field 37
    0.8,                      !- Field 38
    Until: 18:00,             !- Field 39
    0.6,                      !- Field 40
    Until: 21:00,             !- Field 41
    0.2,                      !- Field 42
    Until: 22:00,             !- Field 43
    0.1,                      !- Field 44
    Until: 24:00,             !- Field 45
    0.0,                      !- Field 46
    For: AllOtherDays,        !- Field 47
    Until: 09:00,             !- Field 48
    0.0,                      !- Field 49
    Until: 10:00,             !- Field 50
    0.1,                      !- Field 51
    Until: 12:00,             !- Field 52
    0.2,                      !- Field 53
    Until: 17:00,             !- Field 54
    0.4,                      !- Field 55
    Until: 18:00,             !- Field 56
    0.2,                      !- Field 57
    Until: 19:00,             !- Field 58
    0.1,                      !- Field 59
    Until: 24:00,             !- Field 60
    0.0;                      !- Field 61

Schedule:Compact,
    INFIL_HALF_ON_SCH,        !- Name
    Fraction,                 !- Schedule Type Limits Name
    Through: 12/31,           !- Field 1
    For: Weekdays SummerDesignDay,    !- Field 2
    Until: 06:00,             !- Field 3
    1.0,                      !- Field 4
    Until: 21:00,             !- Field 5
    0.5,                      !- Field 6
    Until: 24:00,             !- Field 7
    1.0,                      !- Field 8
    For: Saturday,            !- Field 9
    Until: 06:00,             !- Field 10
    1.0,                      !- Field 11
    Until: 22:00,             !- Field 12
    0.5,                      !- Field 13
    Until: 24:00,             !- Field 14
    1.0,                      !- Field 15
    For: WinterDesignDay,     !- Field 16
    Until: 24:00,             !- Field 17
    1.0,                      !- Field 18
    For: AllOtherDays,        !- Field 19
    Until: 08:00,             !- Field 20
    1.0,                      !- Field 21
    Until: 17:00,             !- Field 22
    0.5,                      !- Field 23
    Until: 24:00,             !- Field 24
    1.0;                      !- Field 25

Schedule:Compact,
    INFIL_FRONT_SCH,          !- Name
    Fraction,                 !- Schedule Type Limits Name
    Through: 12/31,           !- Field 1
    For: Weekdays SummerDesignDay,    !- Field 2
    Until: 06:00,             !- Field 3
    0.25,                     !- Field 4
    Until: 21:00,             !- Field 5
    1.0,                      !- Field 6
    Until: 24:00,             !- Field 7
    0.25,                     !- Field 8
    For: Saturday,            !- Field 9
    Until: 06:00,             !- Field 10
    0.25,                     !- Field 11
    Until: 22:00,             !- Field 12
    1.0,                      !- Field 13
    Until: 24:00,             !- Field 14
    0.25,                     !- Field 15
    For: WinterDesignDay,     !- Field 16
    Until: 24:00,             !- Field 17
    1.0,                      !- Field 18
    For: AllOtherDays,        !- Field 19
    Until: 08:00,             !- Field 20
    0.25,                     !- Field 21
    Until: 17:00,             !- Field 22
    1.0,                      !- Field 23
    Until: 24:00,             !- Field 24
    0.25;                     !- Field 25

Schedule:Compact,
    WORK_EFF_SCH,             !- Name
    Fraction,                 !- Schedule Type Limits Name
    Through: 12/31,           !- Field 1
    For: AllDays,             !- Field 2
    Until: 24:00,             !- Field 3
    0.0;                      !- Field 4

Schedule:Compact,
    ACTIVITY_SCH,             !- Name
    Any Number,               !- Schedule Type Limits Name
    Through: 12/31,           !- Field 1
    For: AllDays,             !- Field 2
    Until: 24:00,             !- Field 3
    120.;                     !- Field 4

Schedule:Compact,
    AIR_VELO_SCH,             !- Name
    Any Number,               !- Schedule Type Limits Name
    Through: 12/31,           !- Field 1
    For: AllDays,             !- Field 2
    Until: 24:00,             !- Field 3
    0.2;                      !- Field 4

Schedule:Compact,
    CLOTHING_SCH,             !- Name
    Any Number,               !- Schedule Type Limits Name
    Through: 04/30,           !- Field 1
    For: AllDays,             !- Field 2
    Until: 24:00,             !- Field 3
    1.0,                      !- Field 4
    Through: 09/30,           !- Field 5
    For: AllDays,             !- Field 6
    Until: 24:00,             !- Field 7
    0.5,                      !- Field 8
    Through: 12/31,           !- Field 9
    For: AllDays,             !- Field 10
    Until: 24:00,             !- Field 11
    1.0;                      !- Field 12

Schedule:Compact,
    CLGSETP_SCH,              !- Name
    Temperature,              !- Schedule Type Limits Name
    Through: 12/31,           !- Field 1
    For: Weekdays SummerDesignDay,    !- Field 2
    Until: 06:00,             !- Field 3
    30.0,                     !- Field 4
    Until: 21:00,             !- Field 5
    24.0,                     !- Field 6
    Until: 24:00,             !- Field 7
    30.0,                     !- Field 8
    For: Saturday,            !- Field 9
    Until: 06:00,             !- Field 10
    30.0,                     !- Field 11
    Until: 22:00,             !- Field 12
    24.0,                     !- Field 13
    Until: 24:00,             !- Field 14
    30.0,                     !- Field 15
    For WinterDesignDay,      !- Field 16
    Until: 24:00,             !- Field 17
    30.0,                     !- Field 18
    For: Sunday Holidays AllOtherDays,    !- Field 19
    Until: 8:00,              !- Field 20
    30.0,                     !- Field 21
    Until: 19:00,             !- Field 22
    24.0,                     !- Field 23
    Until: 24:00,             !- Field 24
    30.0;                     !- Field 25

Schedule:Compact,
    Dual Zone Control Type Sched,    !- Name
    Control Type,             !- Schedule Type Limits Name
    Through: 12/31,           !- Field 1
    For: AllDays,             !- Field 2
    Until: 24:00,             !- Field 3
    4;                        !- Field 4

Schedule:Compact,
    FRONT_ENTRY_COOLING,      !- Name
    Temperature,              !- Schedule Type Limits Name
    Through: 12/31,           !- Field 1
    For: AllDays,             !- Field 2
    Until: 24:00,             !- Field 3
    90;                       !- Field 4

Schedule:Compact,
    HTGSETP_SCH,              !- Name
    Temperature,              !- Schedule Type Limits Name
    Through: 12/31,           !- Field 1
    For: Weekdays,            !- Field 2
    Until: 06:00,             !- Field 3
    15.6,                     !- Field 4
    Until: 21:00,             !- Field 5
    21.0,                     !- Field 6
    Until: 24:00,             !- Field 7
    15.6,                     !- Field 8
    For SummerDesignDay,      !- Field 9
    Until: 24:00,             !- Field 10
    15.6,                     !- Field 11
    For WinterDesignDay,      !- Field 12
    Until: 24:00,             !- Field 13
    21.0,                     !- Field 14
    For: Saturday,            !- Field 15
    Until: 06:00,             !- Field 16
    15.6,                     !- Field 17
    Until: 22:00,             !- Field 18
    21.0,                     !- Field 19
    Until: 24:00,             !- Field 20
    15.6,                     !- Field 21
    For: Sunday Holidays AllOtherDays,    !- Field 22
    Until:  8:00,             !- Field 23
    15.6,                     !- Field 24
    Until: 19:00,             !- Field 25
    21.,                      !- Field 26
    Until: 24:00,             !- Field 27
    15.6;                     !- Field 28

Schedule:Compact,
    HVACOperationSchd,        !- Name
    On/Off,                   !- Schedule Type Limits Name
    Through: 12/31,           !- Field 1
    For: Weekdays SummerDesignDay,    !- Field 2
    Until: 06:00,             !- Field 3
    0.0,                      !- Field 4
    Until: 21:00,             !- Field 5
    1.0,                      !- Field 6
    Until: 24:00,             !- Field 7
    0.0,                      !- Field 8
    For: Saturday WinterDesignDay,    !- Field 9
    Until: 06:00,             !- Field 10
    0.0,                      !- Field 11
    Until: 22:00,             !- Field 12
    1.0,                      !- Field 13
    Until: 24:00,             !- Field 14
    0.0,                      !- Field 15
    For: AllOtherDays,        !- Field 16
    Until: 08:00,             !- Field 17
    0.0,                      !- Field 18
    Until: 19:00,             !- Field 19
    1.0,                      !- Field 20
    Until: 24:00,             !- Field 21
    0.0;                      !- Field 22

Material,
    Mass NonRes Wall Insulation,    !- Name
    MediumRough,              !- Roughness
    0.0495494599433393,       !- Thickness
    0.049,                    !- Conductivity
    265,                      !- Density
    836.8,                    !- Specific Heat
    0.9,                      !- Thermal Absorptance
    0.7,                      !- Solar Absorptance
    0.7;                      !- Visible Absorptance

Material,
    IEAD NonRes Roof Insulation,    !- Name
    MediumRough,              !- Roughness
    0.127338688569477,        !- Thickness
    0.049,                    !- Conductivity
    265,                      !- Density
    836.8,                    !- Specific Heat
    0.9,                      !- Thermal Absorptance
    0.7,                      !- Solar Absorptance
    0.7;                      !- Visible Absorptance

Material,
    Std Wood 6inch,           !- Name
    MediumSmooth,             !- Roughness
    0.15,                     !- Thickness
    0.12,                     !- Conductivity
    540,                      !- Density
    1210,                     !- Specific Heat
    0.9,                      !- Thermal Absorptance
    0.7,                      !- Solar Absorptance
    0.7;                      !- Visible Absorptance

Material,
    Wood Siding,              !- Name
    MediumSmooth,             !- Roughness
    0.01,                     !- Thickness
    0.11,                     !- Conductivity
    544.62,                   !- Density
    1210,                     !- Specific Heat
    0.9,                      !- Thermal Absorptance
    0.78,                     !- Solar Absorptance
    0.78;                     !- Visible Absorptance

Material,
    1/2IN Gypsum,             !- Name
    Smooth,                   !- Roughness
    0.0127,                   !- Thickness
    0.16,                     !- Conductivity
    784.9,                    !- Density
    830,                      !- Specific Heat
    0.9,                      !- Thermal Absorptance
    0.92,                     !- Solar Absorptance
    0.92;                     !- Visible Absorptance

Material,
    1IN Stucco,               !- Name
    Smooth,                   !- Roughness
    0.0253,                   !- Thickness
    0.6918,                   !- Conductivity
    1858,                     !- Density
    837,                      !- Specific Heat
    0.9,                      !- Thermal Absorptance
    0.92,                     !- Solar Absorptance
    0.92;                     !- Visible Absorptance

Material,
    8IN CONCRETE HW,          !- Name
    Rough,                    !- Roughness
    0.2032,                   !- Thickness
    1.311,                    !- Conductivity
    2240,                     !- Density
    836.8,                    !- Specific Heat
    0.9,                      !- Thermal Absorptance
    0.7,                      !- Solar Absorptance
    0.7;                      !- Visible Absorptance

Material,
    Metal Siding,             !- Name
    Smooth,                   !- Roughness
    0.0015,                   !- Thickness
    44.96,                    !- Conductivity
    7688.86,                  !- Density
    410,                      !- Specific Heat
    0.9,                      !- Thermal Absorptance
    0.2,                      !- Solar Absorptance
    0.2;                      !- Visible Absorptance

Material,
    HW CONCRETE,              !- Name
    Rough,                    !- Roughness
    0.1016,                   !- Thickness
    1.311,                    !- Conductivity
    2240,                     !- Density
    836.8,                    !- Specific Heat
    0.9,                      !- Thermal Absorptance
    0.7,                      !- Solar Absorptance